# generated using pymatgen
data_Rb2PaPtO6
_symmetry_space_group_name_H-M   'P 1'
_cell_length_a   5.94790361
_cell_length_b   5.94790417
_cell_length_c   5.94715362
_cell_angle_alpha   120.00280498
_cell_angle_beta   120.00278931
_cell_angle_gamma   90.00640674
_symmetry_Int_Tables_number   1
_chemical_formula_structural   Rb2PaPtO6
_chemical_formula_sum   'Rb2 Pa1 Pt1 O6'
_cell_volume   148.75138581
_cell_formula_units_Z   1
loop_
 _symmetry_equiv_pos_site_id
 _symmetry_equiv_pos_as_xyz
  1  'x, y, z'
loop_
 _atom_site_type_symbol
 _atom_site_label
 _atom_site_symmetry_multiplicity
 _atom_site_fract_x
 _atom_site_fract_y
 _atom_site_fract_z
 _atom_site_occupancy
  Rb  Rb0  1  0.74989642  0.25043668  0.49983801  1
  Rb  Rb1  1  0.24993834  0.75039381  0.49983757  1
  Pa  Pa2  1  0.49989921  0.50039539  0.99979796  1
  Pt  Pt3  1  0.99989535  0.00039225  0.99979003  1
  O  O4  1  0.75880583  0.75932141  0.99981611  1
  O  O5  1  0.75894707  0.75943992  0.51787241  1
  O  O6  1  0.24096796  0.24144837  0.99973244  1
  O  O7  1  0.75876807  0.24151641  0.99976727  1
  O  O8  1  0.24084540  0.24134847  0.48171303  1
  O  O9  1  0.24100734  0.75925228  0.99977817  1
