# generated using pymatgen
data_Li3Ho3PaSe8
_symmetry_space_group_name_H-M   'P 1'
_cell_length_a   8.16528400
_cell_length_b   8.16389792
_cell_length_c   8.02968370
_cell_angle_alpha   120.59266074
_cell_angle_beta   90.00000000
_cell_angle_gamma   120.00561647
_symmetry_Int_Tables_number   1
_chemical_formula_structural   Li3Ho3PaSe8
_chemical_formula_sum   'Li3 Ho3 Pa1 Se8'
_cell_volume   375.02970150
_cell_formula_units_Z   1
loop_
 _symmetry_equiv_pos_site_id
 _symmetry_equiv_pos_as_xyz
  1  'x, y, z'
loop_
 _atom_site_type_symbol
 _atom_site_label
 _atom_site_symmetry_multiplicity
 _atom_site_fract_x
 _atom_site_fract_y
 _atom_site_fract_z
 _atom_site_occupancy
  Li  Li0  1  0.00000000  0.00000000  0.00000000  1
  Li  Li1  1  0.00000000  0.50000000  -0.00000000  1
  Li  Li2  1  0.50000000  0.50000000  -0.00000000  1
  Ho  Ho3  1  0.50000000  -0.00000000  0.50000000  1
  Ho  Ho4  1  0.50000000  0.50000000  0.50000000  1
  Ho  Ho5  1  -0.00000000  0.50000000  0.50000000  1
  Pa  Pa6  1  -0.00000000  -0.00000000  0.50000000  1
  Se  Se7  1  0.24932739  0.49865479  0.24830494  1
  Se  Se8  1  0.75067261  0.50134521  0.75169506  1
  Se  Se9  1  0.75073040  0.50146181  0.25083781  1
  Se  Se10  1  0.24926960  0.49853819  0.74916219  1
  Se  Se11  1  0.75072532  0.99974968  0.25082722  1
  Se  Se12  1  0.24927468  0.00025032  0.74917278  1
  Se  Se13  1  0.24902436  0.99974968  0.25082722  1
  Se  Se14  1  0.75097564  0.00025032  0.74917278  1
