# generated using pymatgen
data_K2Mo3(AsO5)4
_symmetry_space_group_name_H-M   'P 1'
_cell_length_a   10.01933517
_cell_length_b   10.01933517
_cell_length_c   12.39681552
_cell_angle_alpha   69.52187846
_cell_angle_beta   69.52187845
_cell_angle_gamma   54.16711604
_symmetry_Int_Tables_number   1
_chemical_formula_structural   K2Mo3(AsO5)4
_chemical_formula_sum   'K4 Mo6 As8 O40'
_cell_volume   927.78114024
_cell_formula_units_Z   2
loop_
 _symmetry_equiv_pos_site_id
 _symmetry_equiv_pos_as_xyz
  1  'x, y, z'
loop_
 _atom_site_type_symbol
 _atom_site_label
 _atom_site_symmetry_multiplicity
 _atom_site_fract_x
 _atom_site_fract_y
 _atom_site_fract_z
 _atom_site_occupancy
  K  K0  1  0.34840384  0.84118566  0.90274410  1
  K  K1  1  0.15881434  0.65159616  0.59725590  1
  K  K2  1  0.84118566  0.34840384  0.40274410  1
  K  K3  1  0.65159616  0.15881434  0.09725590  1
  Mo  Mo4  1  0.67197711  0.66410083  0.14079863  1
  Mo  Mo5  1  0.33589917  0.32802289  0.35920137  1
  Mo  Mo6  1  0.07455115  0.92544885  0.25000000  1
  Mo  Mo7  1  0.32802289  0.33589917  0.85920137  1
  Mo  Mo8  1  0.66410083  0.67197711  0.64079863  1
  Mo  Mo9  1  0.92544885  0.07455115  0.75000000  1
  As  As10  1  0.70835091  0.01191876  0.46175342  1
  As  As11  1  0.98200407  0.65845347  0.22922919  1
  As  As12  1  0.65845347  0.98200407  0.72922919  1
  As  As13  1  0.01191876  0.70835091  0.96175342  1
  As  As14  1  0.29164909  0.98808124  0.53824658  1
  As  As15  1  0.98808124  0.29164909  0.03824658  1
  As  As16  1  0.34154653  0.01799593  0.27077081  1
  As  As17  1  0.01799593  0.34154653  0.77077081  1
  O  O18  1  0.14503354  0.07506185  0.26201271  1
  O  O19  1  0.22731316  0.83937060  0.13250391  1
  O  O20  1  0.20369592  0.19653027  0.48447045  1
  O  O21  1  0.40233892  0.43859611  0.73441217  1
  O  O22  1  0.50259985  0.09926299  0.83102161  1
  O  O23  1  0.43859611  0.40233892  0.23441217  1
  O  O24  1  0.34672911  0.19111642  0.24488611  1
  O  O25  1  0.19653027  0.20369592  0.98447045  1
  O  O26  1  0.11139633  0.62107670  0.08772748  1
  O  O27  1  0.92493815  0.85496646  0.23798729  1
  O  O28  1  0.83937060  0.22731316  0.63250391  1
  O  O29  1  0.79630408  0.80346973  0.51552955  1
  O  O30  1  0.80346973  0.79630408  0.01552955  1
  O  O31  1  0.07506185  0.14503354  0.76201271  1
  O  O32  1  0.16062940  0.77268684  0.36749609  1
  O  O33  1  0.84431634  0.07292085  0.37373183  1
  O  O34  1  0.49740015  0.90073701  0.16897839  1
  O  O35  1  0.09926299  0.50259985  0.33102161  1
  O  O36  1  0.45408565  0.90450039  0.60733061  1
  O  O37  1  0.09549961  0.54591435  0.89266939  1
  O  O38  1  0.88860367  0.37892330  0.91227252  1
  O  O39  1  0.77268684  0.16062940  0.86749609  1
  O  O40  1  0.15568366  0.92707915  0.62626817  1
  O  O41  1  0.65327089  0.80888358  0.75511389  1
  O  O42  1  0.90450039  0.45408565  0.10733061  1
  O  O43  1  0.85496646  0.92493815  0.73798729  1
  O  O44  1  0.67241600  0.59607676  0.53200024  1
  O  O45  1  0.92707915  0.15568366  0.12626817  1
  O  O46  1  0.62107670  0.11139633  0.58772748  1
  O  O47  1  0.56140389  0.59766108  0.76558783  1
  O  O48  1  0.59766108  0.56140389  0.26558783  1
  O  O49  1  0.80888358  0.65327089  0.25511389  1
  O  O50  1  0.07292085  0.84431634  0.87373183  1
  O  O51  1  0.37892330  0.88860367  0.41227252  1
  O  O52  1  0.32758400  0.40392324  0.46799976  1
  O  O53  1  0.54591435  0.09549961  0.39266939  1
  O  O54  1  0.59607676  0.67241600  0.03200024  1
  O  O55  1  0.19111642  0.34672911  0.74488611  1
  O  O56  1  0.40392324  0.32758400  0.96799976  1
  O  O57  1  0.90073701  0.49740015  0.66897839  1
