# generated using pymatgen
data_CePu2TaO8
_symmetry_space_group_name_H-M   'P 1'
_cell_length_a   5.06366062
_cell_length_b   5.06318583
_cell_length_c   6.94583301
_cell_angle_alpha   89.99867461
_cell_angle_beta   90.00090405
_cell_angle_gamma   90.44982762
_symmetry_Int_Tables_number   1
_chemical_formula_structural   CePu2TaO8
_chemical_formula_sum   'Ce1 Pu2 Ta1 O8'
_cell_volume   178.07354751
_cell_formula_units_Z   1
loop_
 _symmetry_equiv_pos_site_id
 _symmetry_equiv_pos_as_xyz
  1  'x, y, z'
loop_
 _atom_site_type_symbol
 _atom_site_label
 _atom_site_symmetry_multiplicity
 _atom_site_fract_x
 _atom_site_fract_y
 _atom_site_fract_z
 _atom_site_occupancy
  Ce  Ce0  1  -0.00000000  0.00000000  0.50000000  1
  Pu  Pu1  1  0.50001118  0.50001209  0.75663320  1
  Pu  Pu2  1  0.49998882  0.49998791  0.24336680  1
  Ta  Ta3  1  0.00000000  0.00000000  0.00000000  1
  O  O4  1  0.18397679  0.81570491  0.21933800  1
  O  O5  1  0.71479447  0.71507899  0.00002153  1
  O  O6  1  0.81606473  0.18433373  0.21934503  1
  O  O7  1  0.81602321  0.18429509  0.78066200  1
  O  O8  1  0.28520553  0.28492101  0.99997847  1
  O  O9  1  0.18393527  0.81566627  0.78065497  1
  O  O10  1  0.68486648  0.68563425  0.49999218  1
  O  O11  1  0.31513352  0.31436575  0.50000782  1
