# generated using pymatgen
data_HfPaNi
_symmetry_space_group_name_H-M   'P 1'
_cell_length_a   3.14121993
_cell_length_b   3.14121993
_cell_length_c   6.34560351
_cell_angle_alpha   104.33030547
_cell_angle_beta   104.33030547
_cell_angle_gamma   90.00000000
_symmetry_Int_Tables_number   1
_chemical_formula_structural   HfPaNi
_chemical_formula_sum   'Hf1 Pa1 Ni1'
_cell_volume   58.65259998
_cell_formula_units_Z   1
loop_
 _symmetry_equiv_pos_site_id
 _symmetry_equiv_pos_as_xyz
  1  'x, y, z'
loop_
 _atom_site_type_symbol
 _atom_site_label
 _atom_site_symmetry_multiplicity
 _atom_site_fract_x
 _atom_site_fract_y
 _atom_site_fract_z
 _atom_site_occupancy
  Ni  Ni0  1  0.67788056  0.67788056  0.35576111  1
  Pa  Pa1  1  0.01343943  0.01343943  0.02687885  1
  Hf  Hf2  1  0.30868002  0.30868002  0.61736003  1
