# generated using pymatgen
data_Li6Mn3CoO10
_symmetry_space_group_name_H-M   'P 1'
_cell_length_a   6.41393715
_cell_length_b   6.41393715
_cell_length_c   9.84413144
_cell_angle_alpha   80.45090961
_cell_angle_beta   80.45090961
_cell_angle_gamma   26.54222057
_symmetry_Int_Tables_number   1
_chemical_formula_structural   Li6Mn3CoO10
_chemical_formula_sum   'Li6 Mn3 Co1 O10'
_cell_volume   178.31737875
_cell_formula_units_Z   1
loop_
 _symmetry_equiv_pos_site_id
 _symmetry_equiv_pos_as_xyz
  1  'x, y, z'
loop_
 _atom_site_type_symbol
 _atom_site_label
 _atom_site_symmetry_multiplicity
 _atom_site_fract_x
 _atom_site_fract_y
 _atom_site_fract_z
 _atom_site_occupancy
  Li  Li0  1  0.69886088  0.69886088  0.91437591  1
  Li  Li1  1  0.10589071  0.10589071  0.67999569  1
  Li  Li2  1  0.28952432  0.28952432  0.11841675  1
  Li  Li3  1  0.89005127  0.89005127  0.30272044  1
  Li  Li4  1  0.51539721  0.51539721  0.48267861  1
  Li  Li5  1  0.19785390  0.19785390  0.39391729  1
  Mn  Mn6  1  0.99598184  0.99598184  0.00790110  1
  Mn  Mn7  1  0.80048846  0.80048846  0.59216178  1
  Mn  Mn8  1  0.40457344  0.40457344  0.79667822  1
  Co  Co9  1  0.59908968  0.59908968  0.20509183  1
  O  O10  1  0.54168357  0.54168357  0.86582562  1
  O  O11  1  0.94671509  0.94671509  0.65492226  1
  O  O12  1  0.13602915  0.13602915  0.06216305  1
  O  O13  1  0.73900745  0.73900745  0.24716511  1
  O  O14  1  0.34705903  0.34705903  0.46950474  1
  O  O15  1  0.85727945  0.85727945  0.94372065  1
  O  O16  1  0.26501246  0.26501246  0.73530321  1
  O  O17  1  0.45538233  0.45538233  0.14115372  1
  O  O18  1  0.05186074  0.05186074  0.32873964  1
  O  O19  1  0.66226103  0.66226103  0.55756437  1
