# generated using pymatgen
data_LiMg14Sn
_symmetry_space_group_name_H-M   'P 1'
_cell_length_a   6.42758528
_cell_length_b   6.42758528
_cell_length_c   10.27442094
_cell_angle_alpha   90.00000000
_cell_angle_beta   90.00000000
_cell_angle_gamma   121.43866826
_symmetry_Int_Tables_number   1
_chemical_formula_structural   LiMg14Sn
_chemical_formula_sum   'Li1 Mg14 Sn1'
_cell_volume   362.16241504
_cell_formula_units_Z   1
loop_
 _symmetry_equiv_pos_site_id
 _symmetry_equiv_pos_as_xyz
  1  'x, y, z'
loop_
 _atom_site_type_symbol
 _atom_site_label
 _atom_site_symmetry_multiplicity
 _atom_site_fract_x
 _atom_site_fract_y
 _atom_site_fract_z
 _atom_site_occupancy
  Li  Li0  1  0.33159972  0.66840028  0.50000000  1
  Mg  Mg1  1  0.83027177  0.16972823  0.00000000  1
  Mg  Mg2  1  0.33116259  0.66883741  0.00000000  1
  Mg  Mg3  1  0.33247253  0.16137478  0.50000000  1
  Mg  Mg4  1  0.32987600  0.16951051  0.00000000  1
  Mg  Mg5  1  0.83862522  0.66752747  0.50000000  1
  Mg  Mg6  1  0.83048949  0.67012400  0.00000000  1
  Mg  Mg7  1  0.17006463  0.33416310  0.25400146  1
  Mg  Mg8  1  0.17006463  0.33416310  0.74599854  1
  Mg  Mg9  1  0.66583690  0.82993537  0.25400146  1
  Mg  Mg10  1  0.66583690  0.82993537  0.74599854  1
  Mg  Mg11  1  0.66632576  0.33367424  0.25245679  1
  Mg  Mg12  1  0.66632576  0.33367424  0.74754321  1
  Mg  Mg13  1  0.16870658  0.83129342  0.25108912  1
  Mg  Mg14  1  0.16870658  0.83129342  0.74891088  1
  Sn  Sn15  1  0.83363143  0.16636857  0.50000000  1
