# generated using pymatgen
data_Zn(Cu2Ni)2
_symmetry_space_group_name_H-M   'P 1'
_cell_length_a   4.89113897
_cell_length_b   4.78779489
_cell_length_c   4.89113898
_cell_angle_alpha   118.97633090
_cell_angle_beta   103.68963157
_cell_angle_gamma   61.02366912
_symmetry_Int_Tables_number   1
_chemical_formula_structural   Zn(Cu2Ni)2
_chemical_formula_sum   'Zn1 Cu4 Ni2'
_cell_volume   87.65797170
_cell_formula_units_Z   1
loop_
 _symmetry_equiv_pos_site_id
 _symmetry_equiv_pos_as_xyz
  1  'x, y, z'
loop_
 _atom_site_type_symbol
 _atom_site_label
 _atom_site_symmetry_multiplicity
 _atom_site_fract_x
 _atom_site_fract_y
 _atom_site_fract_z
 _atom_site_occupancy
  Zn  Zn0  1  0.00000000  0.00000000  0.00000000  1
  Cu  Cu1  1  0.59069910  0.70457836  0.99989962  1
  Cu  Cu2  1  0.40930090  0.29542164  0.00010038  1
  Cu  Cu3  1  0.99989962  0.29542164  0.59069910  1
  Cu  Cu4  1  0.00010038  0.70457836  0.40930090  1
  Ni  Ni5  1  0.49923781  0.75090156  0.50076219  1
  Ni  Ni6  1  0.50076219  0.24909844  0.49923781  1
