# generated using pymatgen
data_CeIn2SnTe4
_symmetry_space_group_name_H-M   'P 1'
_cell_length_a   4.50224971
_cell_length_b   8.16543294
_cell_length_c   7.94881041
_cell_angle_alpha   71.51576289
_cell_angle_beta   89.99972799
_cell_angle_gamma   89.99968694
_symmetry_Int_Tables_number   1
_chemical_formula_structural   CeIn2SnTe4
_chemical_formula_sum   'Ce1 In2 Sn1 Te4'
_cell_volume   277.14527363
_cell_formula_units_Z   1
loop_
 _symmetry_equiv_pos_site_id
 _symmetry_equiv_pos_as_xyz
  1  'x, y, z'
loop_
 _atom_site_type_symbol
 _atom_site_label
 _atom_site_symmetry_multiplicity
 _atom_site_fract_x
 _atom_site_fract_y
 _atom_site_fract_z
 _atom_site_occupancy
  Ce  Ce0  1  0.00000050  0.49999400  0.50000450  1
  In  In1  1  -0.00000000  0.00000100  0.99999900  1
  In  In2  1  0.50000000  0.00000100  0.49999900  1
  Sn  Sn3  1  0.49999900  0.50000150  0.99999950  1
  Te  Te4  1  0.00000300  0.73343500  0.74537589  1
  Te  Te5  1  0.99999600  0.26656650  0.25462261  1
  Te  Te6  1  0.50000200  0.72858965  0.26351874  1
  Te  Te7  1  0.49999700  0.27141135  0.73648026  1
