# generated using pymatgen
data_Er3ZrIr4
_symmetry_space_group_name_H-M   'P 1'
_cell_length_a   3.24245840
_cell_length_b   4.86729324
_cell_length_c   9.75499777
_cell_angle_alpha   90.00000000
_cell_angle_beta   90.00000000
_cell_angle_gamma   90.00000000
_symmetry_Int_Tables_number   1
_chemical_formula_structural   Er3ZrIr4
_chemical_formula_sum   'Er3 Zr1 Ir4'
_cell_volume   153.95333434
_cell_formula_units_Z   1
loop_
 _symmetry_equiv_pos_site_id
 _symmetry_equiv_pos_as_xyz
  1  'x, y, z'
loop_
 _atom_site_type_symbol
 _atom_site_label
 _atom_site_symmetry_multiplicity
 _atom_site_fract_x
 _atom_site_fract_y
 _atom_site_fract_z
 _atom_site_occupancy
  Ir  Ir0  1  0.00000000  0.00000000  0.50000000  1
  Ir  Ir1  1  0.00000000  0.50000000  0.76529643  1
  Ir  Ir2  1  0.00000000  0.00000000  0.00000000  1
  Ir  Ir3  1  0.00000000  0.50000000  0.23470357  1
  Zr  Zr4  1  0.50000000  0.50000000  0.00000000  1
  Er  Er5  1  0.50000000  0.00000000  0.25059558  1
  Er  Er6  1  0.50000000  0.50000000  0.50000000  1
  Er  Er7  1  0.50000000  0.00000000  0.74940442  1
