# generated using pymatgen
data_CrS
_symmetry_space_group_name_H-M   'P 1'
_cell_length_a   18.74217156
_cell_length_b   18.74217156
_cell_length_c   3.28648861
_cell_angle_alpha   90.00000000
_cell_angle_beta   90.00000000
_cell_angle_gamma   120.00000000
_symmetry_Int_Tables_number   1
_chemical_formula_structural   CrS
_chemical_formula_sum   'Cr6 S6'
_cell_volume   999.77570965
_cell_formula_units_Z   6
loop_
 _symmetry_equiv_pos_site_id
 _symmetry_equiv_pos_as_xyz
  1  'x, y, z'
loop_
 _atom_site_type_symbol
 _atom_site_label
 _atom_site_symmetry_multiplicity
 _atom_site_fract_x
 _atom_site_fract_y
 _atom_site_fract_z
 _atom_site_occupancy
  Cr  Cr0  1  0.65015613  0.46468916  0.51945220  1
  Cr  Cr1  1  0.50095483  0.63231218  0.51948136  1
  Cr  Cr2  1  0.34993995  0.40300562  0.51949180  1
  Cr  Cr3  1  0.34986857  0.53534375  0.51953702  1
  Cr  Cr4  1  0.49900639  0.36766756  0.51944529  1
  Cr  Cr5  1  0.65006152  0.59697406  0.51943371  1
  S  S6  1  0.60456025  0.65875808  0.01961175  1
  S  S7  1  0.27532187  0.43221439  0.01963880  1
  S  S8  1  0.58704518  0.35890492  0.01956803  1
  S  S9  1  0.39537449  0.34114907  0.01961751  1
  S  S10  1  0.72474556  0.56783601  0.01960197  1
  S  S11  1  0.41296526  0.64114519  0.01961456  1
