# generated using pymatgen
data_HfSe3
_symmetry_space_group_name_H-M   'P 1'
_cell_length_a   5.33807330
_cell_length_b   5.33807330
_cell_length_c   5.33853339
_cell_angle_alpha   133.32787535
_cell_angle_beta   133.32787532
_cell_angle_gamma   68.13413459
_symmetry_Int_Tables_number   1
_chemical_formula_structural   HfSe3
_chemical_formula_sum   'Hf1 Se3'
_cell_volume   79.09392287
_cell_formula_units_Z   1
loop_
 _symmetry_equiv_pos_site_id
 _symmetry_equiv_pos_as_xyz
  1  'x, y, z'
loop_
 _atom_site_type_symbol
 _atom_site_label
 _atom_site_symmetry_multiplicity
 _atom_site_fract_x
 _atom_site_fract_y
 _atom_site_fract_z
 _atom_site_occupancy
  Hf  Hf0  1  0.00000000  0.00000000  0.00000000  1
  Se  Se1  1  0.75000003  0.24999997  0.50000000  1
  Se  Se2  1  0.24999997  0.75000003  0.50000000  1
  Se  Se3  1  0.50000000  0.50000000  0.00000000  1
