# generated using pymatgen
data_MnCrGa2
_symmetry_space_group_name_H-M   'P 1'
_cell_length_a   2.73340091
_cell_length_b   2.73340092
_cell_length_c   8.52740609
_cell_angle_alpha   80.77734258
_cell_angle_beta   80.77734260
_cell_angle_gamma   59.99999994
_symmetry_Int_Tables_number   1
_chemical_formula_structural   MnCrGa2
_chemical_formula_sum   'Mn1 Cr1 Ga2'
_cell_volume   54.22340251
_cell_formula_units_Z   1
loop_
 _symmetry_equiv_pos_site_id
 _symmetry_equiv_pos_as_xyz
  1  'x, y, z'
loop_
 _atom_site_type_symbol
 _atom_site_label
 _atom_site_symmetry_multiplicity
 _atom_site_fract_x
 _atom_site_fract_y
 _atom_site_fract_z
 _atom_site_occupancy
  Mn  Mn0  1  0.66623891  0.66623891  0.00128228  1
  Cr  Cr1  1  0.50022172  0.50022172  0.49933485  1
  Ga  Ga2  1  0.08344814  0.08344814  0.74965558  1
  Ga  Ga3  1  0.25009124  0.25009124  0.24972629  1
