# generated using pymatgen
data_PrZnPO
_symmetry_space_group_name_H-M   'P 1'
_cell_length_a   10.71641260
_cell_length_b   10.71641260
_cell_length_c   10.71641191
_cell_angle_alpha   21.65368815
_cell_angle_beta   21.65368814
_cell_angle_gamma   21.65368770
_symmetry_Int_Tables_number   1
_chemical_formula_structural   PrZnPO
_chemical_formula_sum   'Pr2 Zn2 P2 O2'
_cell_volume   146.84461022
_cell_formula_units_Z   2
loop_
 _symmetry_equiv_pos_site_id
 _symmetry_equiv_pos_as_xyz
  1  'x, y, z'
loop_
 _atom_site_type_symbol
 _atom_site_label
 _atom_site_symmetry_multiplicity
 _atom_site_fract_x
 _atom_site_fract_y
 _atom_site_fract_z
 _atom_site_occupancy
  Pr  Pr0  1  0.61835442  0.61835442  0.61835442  1
  Pr  Pr1  1  0.38164558  0.38164558  0.38164558  1
  P  P2  1  0.11466597  0.11466597  0.11466597  1
  P  P3  1  0.88533403  0.88533403  0.88533403  1
  Zn  Zn4  1  0.19602148  0.19602148  0.19602148  1
  Zn  Zn5  1  0.80397852  0.80397852  0.80397852  1
  O  O6  1  0.69501715  0.69501715  0.69501715  1
  O  O7  1  0.30498285  0.30498285  0.30498285  1
