# generated using pymatgen
data_HfFeOs2
_symmetry_space_group_name_H-M   'P 1'
_cell_length_a   3.94842767
_cell_length_b   3.94842767
_cell_length_c   9.27465676
_cell_angle_alpha   77.70992581
_cell_angle_beta   77.70992581
_cell_angle_gamma   90.00000000
_symmetry_Int_Tables_number   1
_chemical_formula_structural   HfFeOs2
_chemical_formula_sum   'Hf2 Fe2 Os4'
_cell_volume   137.88562341
_cell_formula_units_Z   2
loop_
 _symmetry_equiv_pos_site_id
 _symmetry_equiv_pos_as_xyz
  1  'x, y, z'
loop_
 _atom_site_type_symbol
 _atom_site_label
 _atom_site_symmetry_multiplicity
 _atom_site_fract_x
 _atom_site_fract_y
 _atom_site_fract_z
 _atom_site_occupancy
  Hf  Hf0  1  0.00000000  0.00000000  0.00000000  1
  Hf  Hf1  1  0.75000000  0.25000000  0.50000000  1
  Os  Os2  1  0.56008547  0.12500000  0.25000000  1
  Os  Os3  1  0.18991453  0.62500000  0.25000000  1
  Os  Os4  1  0.37500000  0.43991453  0.75000000  1
  Os  Os5  1  0.87500000  0.81008547  0.75000000  1
  Fe  Fe6  1  0.50000000  0.50000000  0.00000000  1
  Fe  Fe7  1  0.25000000  0.75000000  0.50000000  1
