# generated using pymatgen
data_Cd2Ge2Au
_symmetry_space_group_name_H-M   'P 1'
_cell_length_a   4.35630725
_cell_length_b   4.35630725
_cell_length_c   6.67407037
_cell_angle_alpha   70.95197301
_cell_angle_beta   70.95197301
_cell_angle_gamma   90.00000000
_symmetry_Int_Tables_number   1
_chemical_formula_structural   Cd2Ge2Au
_chemical_formula_sum   'Cd2 Ge2 Au1'
_cell_volume   112.35928060
_cell_formula_units_Z   1
loop_
 _symmetry_equiv_pos_site_id
 _symmetry_equiv_pos_as_xyz
  1  'x, y, z'
loop_
 _atom_site_type_symbol
 _atom_site_label
 _atom_site_symmetry_multiplicity
 _atom_site_fract_x
 _atom_site_fract_y
 _atom_site_fract_z
 _atom_site_occupancy
  Ge  Ge0  1  0.39832736  0.39832736  0.20334528  1
  Ge  Ge1  1  0.60167264  0.60167264  0.79665472  1
  Au  Au2  1  0.00000000  0.00000000  0.00000000  1
  Cd  Cd3  1  0.75000000  0.25000000  0.50000000  1
  Cd  Cd4  1  0.25000000  0.75000000  0.50000000  1
