# generated using pymatgen
data_Cs3ReOs
_symmetry_space_group_name_H-M   'P 1'
_cell_length_a   6.05556050
_cell_length_b   6.05556050
_cell_length_c   6.05556050
_cell_angle_alpha   90.00000000
_cell_angle_beta   90.00000000
_cell_angle_gamma   90.00000000
_symmetry_Int_Tables_number   1
_chemical_formula_structural   Cs3ReOs
_chemical_formula_sum   'Cs3 Re1 Os1'
_cell_volume   222.05627096
_cell_formula_units_Z   1
loop_
 _symmetry_equiv_pos_site_id
 _symmetry_equiv_pos_as_xyz
  1  'x, y, z'
loop_
 _atom_site_type_symbol
 _atom_site_label
 _atom_site_symmetry_multiplicity
 _atom_site_fract_x
 _atom_site_fract_y
 _atom_site_fract_z
 _atom_site_occupancy
  Cs  Cs0  1  0.00000000  0.50000000  0.00000000  1
  Cs  Cs1  1  0.00000000  0.00000000  0.50000000  1
  Cs  Cs2  1  0.50000000  0.00000000  0.00000000  1
  Re  Re3  1  0.50000000  0.50000000  0.50000000  1
  Os  Os4  1  0.00000000  0.00000000  0.00000000  1
