# generated using pymatgen
data_Na3Ho3PbO8
_symmetry_space_group_name_H-M   'P 1'
_cell_length_a   6.81340121
_cell_length_b   6.81350709
_cell_length_c   6.85239521
_cell_angle_alpha   119.81188958
_cell_angle_beta   90.00690581
_cell_angle_gamma   119.99931208
_symmetry_Int_Tables_number   1
_chemical_formula_structural   Na3Ho3PbO8
_chemical_formula_sum   'Na3 Ho3 Pb1 O8'
_cell_volume   225.56394287
_cell_formula_units_Z   1
loop_
 _symmetry_equiv_pos_site_id
 _symmetry_equiv_pos_as_xyz
  1  'x, y, z'
loop_
 _atom_site_type_symbol
 _atom_site_label
 _atom_site_symmetry_multiplicity
 _atom_site_fract_x
 _atom_site_fract_y
 _atom_site_fract_z
 _atom_site_occupancy
  Na  Na0  1  0.00000000  0.00000000  0.00000000  1
  Na  Na1  1  -0.00000000  0.50000000  0.00000000  1
  Na  Na2  1  0.50000000  0.50000000  -0.00000000  1
  Ho  Ho3  1  0.50000000  0.00000000  0.50000000  1
  Ho  Ho4  1  0.50000000  0.50000000  0.50000000  1
  Ho  Ho5  1  -0.00000000  0.50000000  0.50000000  1
  Pb  Pb6  1  0.00000000  0.00000000  0.50000000  1
  O  O7  1  0.26593279  0.53191217  0.29788229  1
  O  O8  1  0.73406721  0.46808783  0.70211771  1
  O  O9  1  0.76982356  0.53969973  0.29320030  1
  O  O10  1  0.23017644  0.46030027  0.70679970  1
  O  O11  1  0.76982390  0.02332896  0.29319114  1
  O  O12  1  0.23017610  0.97667104  0.70680886  1
  O  O13  1  0.25346251  0.02333371  0.29319039  1
  O  O14  1  0.74653749  0.97666629  0.70680961  1
