# generated using pymatgen
data_Na2Cd2Bi
_symmetry_space_group_name_H-M   'P 1'
_cell_length_a   8.72448663
_cell_length_b   8.72448663
_cell_length_c   3.66165312
_cell_angle_alpha   90.00000000
_cell_angle_beta   90.00000000
_cell_angle_gamma   90.00000000
_symmetry_Int_Tables_number   1
_chemical_formula_structural   Na2Cd2Bi
_chemical_formula_sum   'Na4 Cd4 Bi2'
_cell_volume   278.71283105
_cell_formula_units_Z   2
loop_
 _symmetry_equiv_pos_site_id
 _symmetry_equiv_pos_as_xyz
  1  'x, y, z'
loop_
 _atom_site_type_symbol
 _atom_site_label
 _atom_site_symmetry_multiplicity
 _atom_site_fract_x
 _atom_site_fract_y
 _atom_site_fract_z
 _atom_site_occupancy
  Na  Na0  1  0.34067336  0.84067336  0.00000000  1
  Na  Na1  1  0.84067336  0.65932664  0.00000000  1
  Na  Na2  1  0.65932664  0.15932664  0.00000000  1
  Na  Na3  1  0.15932664  0.34067336  0.00000000  1
  Bi  Bi4  1  0.00000000  0.00000000  0.00000000  1
  Bi  Bi5  1  0.50000000  0.50000000  0.00000000  1
  Cd  Cd6  1  0.13613021  0.63613021  0.50000000  1
  Cd  Cd7  1  0.63613021  0.86386979  0.50000000  1
  Cd  Cd8  1  0.86386979  0.36386979  0.50000000  1
  Cd  Cd9  1  0.36386979  0.13613021  0.50000000  1
