# generated using pymatgen
data_GaS
_symmetry_space_group_name_H-M   'P 1'
_cell_length_a   10.20350000
_cell_length_b   10.20350000
_cell_length_c   3.68361000
_cell_angle_alpha   90.00000000
_cell_angle_beta   90.00000000
_cell_angle_gamma   119.99999999
_symmetry_Int_Tables_number   1
_chemical_formula_structural   GaS
_chemical_formula_sum   'Ga6 S6'
_cell_volume   332.12579941
_cell_formula_units_Z   6
loop_
 _symmetry_equiv_pos_site_id
 _symmetry_equiv_pos_as_xyz
  1  'x, y, z'
loop_
 _atom_site_type_symbol
 _atom_site_label
 _atom_site_symmetry_multiplicity
 _atom_site_fract_x
 _atom_site_fract_y
 _atom_site_fract_z
 _atom_site_occupancy
  Ga  Ga0  1  0.89238000  0.34121000  0.25000000  1
  Ga  Ga1  1  0.55117000  0.89238000  0.75000000  1
  Ga  Ga2  1  0.65879000  0.55117000  0.25000000  1
  Ga  Ga3  1  0.10762000  0.65879000  0.75000000  1
  Ga  Ga4  1  0.44883000  0.10762000  0.25000000  1
  Ga  Ga5  1  0.34121000  0.44883000  0.75000000  1
  S  S6  1  0.68080000  0.06576000  0.25000000  1
  S  S7  1  0.61504000  0.68080000  0.75000000  1
  S  S8  1  0.93424000  0.61504000  0.25000000  1
  S  S9  1  0.31920000  0.93424000  0.75000000  1
  S  S10  1  0.38496000  0.31920000  0.25000000  1
  S  S11  1  0.06576000  0.38496000  0.75000000  1
