# generated using pymatgen
data_CeScOs2
_symmetry_space_group_name_H-M   'P 1'
_cell_length_a   4.73547696
_cell_length_b   4.73548559
_cell_length_c   4.73548559
_cell_angle_alpha   59.99999995
_cell_angle_beta   59.99993969
_cell_angle_gamma   59.99993969
_symmetry_Int_Tables_number   1
_chemical_formula_structural   CeScOs2
_chemical_formula_sum   'Ce1 Sc1 Os2'
_cell_volume   75.08918196
_cell_formula_units_Z   1
loop_
 _symmetry_equiv_pos_site_id
 _symmetry_equiv_pos_as_xyz
  1  'x, y, z'
loop_
 _atom_site_type_symbol
 _atom_site_label
 _atom_site_symmetry_multiplicity
 _atom_site_fract_x
 _atom_site_fract_y
 _atom_site_fract_z
 _atom_site_occupancy
  Sc  Sc0  1  0.24999982  0.25000006  0.25000006  1
  Os  Os1  1  0.00000051  0.99999983  0.99999983  1
  Os  Os2  1  0.50000045  0.49999985  0.49999985  1
  Ce  Ce3  1  0.75000222  0.74999926  0.74999926  1
