# generated using pymatgen
data_Tb5Nd4Tl
_symmetry_space_group_name_H-M   'P 1'
_cell_length_a   5.88886008
_cell_length_b   8.17638294
_cell_length_c   8.17638294
_cell_angle_alpha   82.54877755
_cell_angle_beta   68.89280213
_cell_angle_gamma   68.89280213
_symmetry_Int_Tables_number   1
_chemical_formula_structural   Tb5Nd4Tl
_chemical_formula_sum   'Tb5 Nd4 Tl1'
_cell_volume   342.63490127
_cell_formula_units_Z   1
loop_
 _symmetry_equiv_pos_site_id
 _symmetry_equiv_pos_as_xyz
  1  'x, y, z'
loop_
 _atom_site_type_symbol
 _atom_site_label
 _atom_site_symmetry_multiplicity
 _atom_site_fract_x
 _atom_site_fract_y
 _atom_site_fract_z
 _atom_site_occupancy
  Tb  Tb0  1  0.76960419  0.36944892  0.00008295  1
  Tb  Tb1  1  0.13905311  0.00008295  0.63055108  1
  Tb  Tb2  1  0.76968614  0.99991705  0.36944892  1
  Tb  Tb3  1  0.13913506  0.63055108  0.99991705  1
  Tb  Tb4  1  0.65985816  0.00000000  0.00000000  1
  Nd  Nd5  1  0.46375314  0.31255312  0.68736510  1
  Nd  Nd6  1  0.77630626  0.68736510  0.68744688  1
  Nd  Nd7  1  0.15111824  0.31263490  0.31255312  1
  Nd  Nd8  1  0.46367236  0.68744688  0.31263490  1
  Tl  Tl9  1  0.17811235  0.00000000  0.00000000  1
