# generated using pymatgen
data_PuBH3
_symmetry_space_group_name_H-M   'P 1'
_cell_length_a   5.64165311
_cell_length_b   5.64501388
_cell_length_c   5.61543763
_cell_angle_alpha   87.44502145
_cell_angle_beta   90.00000000
_cell_angle_gamma   90.00000000
_symmetry_Int_Tables_number   1
_chemical_formula_structural   PuBH3
_chemical_formula_sum   'Pu4 B4 H12'
_cell_volume   178.65824234
_cell_formula_units_Z   4
loop_
 _symmetry_equiv_pos_site_id
 _symmetry_equiv_pos_as_xyz
  1  'x, y, z'
loop_
 _atom_site_type_symbol
 _atom_site_label
 _atom_site_symmetry_multiplicity
 _atom_site_fract_x
 _atom_site_fract_y
 _atom_site_fract_z
 _atom_site_occupancy
  Pu  Pu0  1  0.74344959  0.49878742  0.24248356  1
  Pu  Pu1  1  0.25655041  0.50121258  0.75751644  1
  Pu  Pu2  1  0.24344959  0.00121258  0.25751644  1
  Pu  Pu3  1  0.75655041  0.99878742  0.74248356  1
  B  B4  1  0.25733523  0.47981657  0.24305594  1
  B  B5  1  0.74266477  0.52018343  0.75694406  1
  B  B6  1  0.75733523  0.02018343  0.25694406  1
  B  B7  1  0.24266477  0.97981657  0.74305594  1
  H  H8  1  0.11610489  0.36640563  0.38769621  1
  H  H9  1  0.88389511  0.63359437  0.61230379  1
  H  H10  1  0.61610489  0.13359437  0.11230379  1
  H  H11  1  0.38389511  0.86640563  0.88769621  1
  H  H12  1  0.37259184  0.61881115  0.37657617  1
  H  H13  1  0.62740816  0.38118885  0.62342383  1
  H  H14  1  0.87259184  0.88118885  0.12342383  1
  H  H15  1  0.12740816  0.11881115  0.87657617  1
  H  H16  1  0.62391730  0.87524137  0.37860618  1
  H  H17  1  0.37608270  0.12475863  0.62139382  1
  H  H18  1  0.12391730  0.62475863  0.12139382  1
  H  H19  1  0.87608270  0.37524137  0.87860618  1
