# generated using pymatgen
data_CuOsAu2
_symmetry_space_group_name_H-M   'P 1'
_cell_length_a   5.35579118
_cell_length_b   5.35579118
_cell_length_c   4.93839376
_cell_angle_alpha   67.78531393
_cell_angle_beta   67.78531395
_cell_angle_gamma   29.09533119
_symmetry_Int_Tables_number   1
_chemical_formula_structural   CuOsAu2
_chemical_formula_sum   'Cu1 Os1 Au2'
_cell_volume   63.40994412
_cell_formula_units_Z   1
loop_
 _symmetry_equiv_pos_site_id
 _symmetry_equiv_pos_as_xyz
  1  'x, y, z'
loop_
 _atom_site_type_symbol
 _atom_site_label
 _atom_site_symmetry_multiplicity
 _atom_site_fract_x
 _atom_site_fract_y
 _atom_site_fract_z
 _atom_site_occupancy
  Au  Au0  1  0.98766670  0.98766670  0.08070407  1
  Au  Au1  1  0.75965775  0.75965775  0.67508367  1
  Cu  Cu2  1  0.51572567  0.51572567  0.55862008  1
  Os  Os3  1  0.23694989  0.23694989  0.18559218  1
