# generated using pymatgen
data_LaTcH5
_symmetry_space_group_name_H-M   'P 1'
_cell_length_a   3.96310264
_cell_length_b   4.95583464
_cell_length_c   4.95583401
_cell_angle_alpha   67.06886938
_cell_angle_beta   66.43174475
_cell_angle_gamma   66.43175105
_symmetry_Int_Tables_number   1
_chemical_formula_structural   LaTcH5
_chemical_formula_sum   'La1 Tc1 H5'
_cell_volume   78.65651019
_cell_formula_units_Z   1
loop_
 _symmetry_equiv_pos_site_id
 _symmetry_equiv_pos_as_xyz
  1  'x, y, z'
loop_
 _atom_site_type_symbol
 _atom_site_label
 _atom_site_symmetry_multiplicity
 _atom_site_fract_x
 _atom_site_fract_y
 _atom_site_fract_z
 _atom_site_occupancy
  La  La0  1  0.93211749  0.99999900  0.99999900  1
  Tc  Tc1  1  0.46183477  0.50000000  0.50000000  1
  H  H2  1  0.86520915  0.29681010  0.29681010  1
  H  H3  1  0.93947166  0.50000000  0.50000000  1
  H  H4  1  0.45882935  0.70318990  0.70318990  1
  H  H5  1  0.43661929  0.18778954  0.81221146  1
  H  H6  1  0.43661929  0.81221146  0.18778954  1
