# generated using pymatgen
data_LiHoAsO4
_symmetry_space_group_name_H-M   'P 1'
_cell_length_a   6.54337634
_cell_length_b   6.24375204
_cell_length_c   6.24375204
_cell_angle_alpha   66.00889551
_cell_angle_beta   58.39946010
_cell_angle_gamma   58.39946012
_symmetry_Int_Tables_number   1
_chemical_formula_structural   LiHoAsO4
_chemical_formula_sum   'Li2 Ho2 As2 O8'
_cell_volume   181.95947189
_cell_formula_units_Z   2
loop_
 _symmetry_equiv_pos_site_id
 _symmetry_equiv_pos_as_xyz
  1  'x, y, z'
loop_
 _atom_site_type_symbol
 _atom_site_label
 _atom_site_symmetry_multiplicity
 _atom_site_fract_x
 _atom_site_fract_y
 _atom_site_fract_z
 _atom_site_occupancy
  Li  Li0  1  0.50000000  -0.00000000  0.50000000  1
  Li  Li1  1  -0.00000000  -0.00000000  0.50000000  1
  Ho  Ho2  1  0.00000000  0.00000000  0.00000000  1
  Ho  Ho3  1  -0.00000000  0.50000000  0.50000000  1
  As  As4  1  0.59716140  0.65283860  0.15283860  1
  As  As5  1  0.40283860  0.34716140  0.84716140  1
  O  O6  1  0.72437747  0.73845949  0.81278657  1
  O  O7  1  0.27562253  0.68721343  0.76154051  1
  O  O8  1  0.72437747  0.31278657  0.23845949  1
  O  O9  1  0.27562253  0.26154051  0.18721343  1
  O  O10  1  0.21025211  0.76489004  0.26489004  1
  O  O11  1  0.75996682  0.76489004  0.26489004  1
  O  O12  1  0.24003318  0.23510996  0.73510996  1
  O  O13  1  0.78974789  0.23510996  0.73510996  1
