# generated using pymatgen
data_ReB2Mo
_symmetry_space_group_name_H-M   'P 1'
_cell_length_a   4.77652578
_cell_length_b   4.77652578
_cell_length_c   5.90620175
_cell_angle_alpha   66.14864191
_cell_angle_beta   66.14864191
_cell_angle_gamma   90.00000000
_symmetry_Int_Tables_number   1
_chemical_formula_structural   ReB2Mo
_chemical_formula_sum   'Re2 B4 Mo2'
_cell_volume   110.54339179
_cell_formula_units_Z   2
loop_
 _symmetry_equiv_pos_site_id
 _symmetry_equiv_pos_as_xyz
  1  'x, y, z'
loop_
 _atom_site_type_symbol
 _atom_site_label
 _atom_site_symmetry_multiplicity
 _atom_site_fract_x
 _atom_site_fract_y
 _atom_site_fract_z
 _atom_site_occupancy
  Re  Re0  1  0.00000000  0.00000000  0.00000000  1
  Re  Re1  1  0.75000000  0.25000000  0.50000000  1
  Mo  Mo2  1  0.50000000  0.50000000  0.00000000  1
  Mo  Mo3  1  0.25000000  0.75000000  0.50000000  1
  B  B4  1  0.63730816  0.12500000  0.25000000  1
  B  B5  1  0.11269184  0.62500000  0.25000000  1
  B  B6  1  0.37500000  0.36269184  0.75000000  1
  B  B7  1  0.87500000  0.88730816  0.75000000  1
