# generated using pymatgen
data_Ca3As4(PdRh)2
_symmetry_space_group_name_H-M   'P 1'
_cell_length_a   4.19600576
_cell_length_b   4.19600576
_cell_length_c   15.17096417
_cell_angle_alpha   90.00000000
_cell_angle_beta   90.00000000
_cell_angle_gamma   120.00000002
_symmetry_Int_Tables_number   1
_chemical_formula_structural   Ca3As4(PdRh)2
_chemical_formula_sum   'Ca3 As4 Pd2 Rh2'
_cell_volume   231.32148169
_cell_formula_units_Z   1
loop_
 _symmetry_equiv_pos_site_id
 _symmetry_equiv_pos_as_xyz
  1  'x, y, z'
loop_
 _atom_site_type_symbol
 _atom_site_label
 _atom_site_symmetry_multiplicity
 _atom_site_fract_x
 _atom_site_fract_y
 _atom_site_fract_z
 _atom_site_occupancy
  Ca  Ca0  1  0.00000000  0.00000000  0.72423728  1
  Ca  Ca1  1  0.00000000  0.00000000  0.00000000  1
  Ca  Ca2  1  0.00000000  0.00000000  0.27576272  1
  As  As3  1  0.66666667  0.33333333  0.13735720  1
  As  As4  1  0.33333333  0.66666667  0.86264280  1
  As  As5  1  0.66666667  0.33333333  0.59807306  1
  As  As6  1  0.33333333  0.66666667  0.40192694  1
  Pd  Pd7  1  0.66666667  0.33333333  0.85855444  1
  Pd  Pd8  1  0.33333333  0.66666667  0.14144556  1
  Rh  Rh9  1  0.66666667  0.33333333  0.43864506  1
  Rh  Rh10  1  0.33333333  0.66666667  0.56135494  1
