# generated using pymatgen
data_SmSc(AgS2)2
_symmetry_space_group_name_H-M   'P 1'
_cell_length_a   3.94764246
_cell_length_b   6.89316990
_cell_length_c   6.87528029
_cell_angle_alpha   114.48910585
_cell_angle_beta   90.00000000
_cell_angle_gamma   90.00000000
_symmetry_Int_Tables_number   1
_chemical_formula_structural   SmSc(AgS2)2
_chemical_formula_sum   'Sm1 Sc1 Ag2 S4'
_cell_volume   170.25808069
_cell_formula_units_Z   1
loop_
 _symmetry_equiv_pos_site_id
 _symmetry_equiv_pos_as_xyz
  1  'x, y, z'
loop_
 _atom_site_type_symbol
 _atom_site_label
 _atom_site_symmetry_multiplicity
 _atom_site_fract_x
 _atom_site_fract_y
 _atom_site_fract_z
 _atom_site_occupancy
  Sm  Sm0  1  0.50000000  0.50000000  -0.00000000  1
  Sc  Sc1  1  0.00000000  0.00000000  0.00000000  1
  Ag  Ag2  1  0.50000000  -0.00000000  0.50000000  1
  Ag  Ag3  1  0.00000000  0.50000000  0.50000000  1
  S  S4  1  0.50000000  0.24781581  0.23292366  1
  S  S5  1  0.50000000  0.75218419  0.76707634  1
  S  S6  1  0.00000000  0.21678850  0.76732187  1
  S  S7  1  0.00000000  0.78321150  0.23267813  1
