# generated using pymatgen
data_TaAl2Zn
_symmetry_space_group_name_H-M   'P 1'
_cell_length_a   5.37103417
_cell_length_b   5.37103417
_cell_length_c   4.90614755
_cell_angle_alpha   64.47863367
_cell_angle_beta   64.47863365
_cell_angle_gamma   30.95846723
_symmetry_Int_Tables_number   1
_chemical_formula_structural   TaAl2Zn
_chemical_formula_sum   'Ta1 Al2 Zn1'
_cell_volume   65.12574946
_cell_formula_units_Z   1
loop_
 _symmetry_equiv_pos_site_id
 _symmetry_equiv_pos_as_xyz
  1  'x, y, z'
loop_
 _atom_site_type_symbol
 _atom_site_label
 _atom_site_symmetry_multiplicity
 _atom_site_fract_x
 _atom_site_fract_y
 _atom_site_fract_z
 _atom_site_occupancy
  Zn  Zn0  1  0.24829633  0.24829633  0.16320373  1
  Al  Al1  1  0.99836908  0.99836908  0.08300362  1
  Al  Al2  1  0.75257690  0.75257690  0.66323238  1
  Ta  Ta3  1  0.50075769  0.50075769  0.59056026  1
