# generated using pymatgen
data_Sm5Dy3S8
_symmetry_space_group_name_H-M   'P 1'
_cell_length_a   7.93099784
_cell_length_b   7.93099808
_cell_length_c   7.95604224
_cell_angle_alpha   60.10407876
_cell_angle_beta   60.10407476
_cell_angle_gamma   60.00000188
_symmetry_Int_Tables_number   1
_chemical_formula_structural   Sm5Dy3S8
_chemical_formula_sum   'Sm5 Dy3 S8'
_cell_volume   354.42077756
_cell_formula_units_Z   1
loop_
 _symmetry_equiv_pos_site_id
 _symmetry_equiv_pos_as_xyz
  1  'x, y, z'
loop_
 _atom_site_type_symbol
 _atom_site_label
 _atom_site_symmetry_multiplicity
 _atom_site_fract_x
 _atom_site_fract_y
 _atom_site_fract_z
 _atom_site_occupancy
  Sm  Sm0  1  0.50000000  0.00000000  -0.00000000  1
  Sm  Sm1  1  0.50000000  0.50000000  -0.00000000  1
  Sm  Sm2  1  0.00000000  0.00000000  0.00000000  1
  Sm  Sm3  1  -0.00000000  0.50000000  -0.00000000  1
  Sm  Sm4  1  0.50000000  0.50000000  0.50000000  1
  Dy  Dy5  1  0.50000000  0.00000000  0.50000000  1
  Dy  Dy6  1  0.00000000  0.00000000  0.50000000  1
  Dy  Dy7  1  -0.00000000  0.50000000  0.50000000  1
  S  S8  1  0.25003348  0.25003348  0.74273677  1
  S  S9  1  0.25003348  0.75719626  0.74273677  1
  S  S10  1  0.75719626  0.25003348  0.74273677  1
  S  S11  1  0.75352626  0.75352626  0.73942022  1
  S  S12  1  0.74996652  0.74996652  0.25726323  1
  S  S13  1  0.74996652  0.24280374  0.25726323  1
  S  S14  1  0.24280374  0.74996652  0.25726323  1
  S  S15  1  0.24647374  0.24647374  0.26057978  1
