# generated using pymatgen
data_Ti5ReSn
_symmetry_space_group_name_H-M   'P 1'
_cell_length_a   4.49139514
_cell_length_b   4.49139525
_cell_length_c   6.51597778
_cell_angle_alpha   90.00059497
_cell_angle_beta   90.00095851
_cell_angle_gamma   90.00673486
_symmetry_Int_Tables_number   1
_chemical_formula_structural   Ti5ReSn
_chemical_formula_sum   'Ti5 Re1 Sn1'
_cell_volume   131.44441329
_cell_formula_units_Z   1
loop_
 _symmetry_equiv_pos_site_id
 _symmetry_equiv_pos_as_xyz
  1  'x, y, z'
loop_
 _atom_site_type_symbol
 _atom_site_label
 _atom_site_symmetry_multiplicity
 _atom_site_fract_x
 _atom_site_fract_y
 _atom_site_fract_z
 _atom_site_occupancy
  Ti  Ti0  1  0.49999600  0.99998800  0.26795769  1
  Ti  Ti1  1  0.99997900  0.49999900  0.26795769  1
  Ti  Ti2  1  -0.00000000  -0.00000000  0.50000000  1
  Ti  Ti3  1  0.00002100  0.50000100  0.73204231  1
  Ti  Ti4  1  0.50000400  0.00001200  0.73204231  1
  Re  Re5  1  0.50000000  0.50000000  0.50000000  1
  Sn  Sn6  1  0.00000000  0.00000000  0.00000000  1
