# generated using pymatgen
data_Dy(Zn3Ni2)2
_symmetry_space_group_name_H-M   'P 1'
_cell_length_a   6.30714613
_cell_length_b   6.30714613
_cell_length_c   6.30714613
_cell_angle_alpha   88.96140454
_cell_angle_beta   120.60143405
_cell_angle_gamma   120.60143404
_symmetry_Int_Tables_number   1
_chemical_formula_structural   Dy(Zn3Ni2)2
_chemical_formula_sum   'Dy1 Zn6 Ni4'
_cell_volume   175.76816735
_cell_formula_units_Z   1
loop_
 _symmetry_equiv_pos_site_id
 _symmetry_equiv_pos_as_xyz
  1  'x, y, z'
loop_
 _atom_site_type_symbol
 _atom_site_label
 _atom_site_symmetry_multiplicity
 _atom_site_fract_x
 _atom_site_fract_y
 _atom_site_fract_z
 _atom_site_occupancy
  Dy  Dy0  1  0.00000000  0.00000000  0.00000000  1
  Zn  Zn1  1  1.00000000  0.89572238  0.51549014  1
  Zn  Zn2  1  1.00000000  0.51549014  0.89572238  1
  Zn  Zn3  1  0.61976776  0.10427762  0.10427762  1
  Zn  Zn4  1  0.50000000  0.00000000  0.50000000  1
  Zn  Zn5  1  0.38023224  0.48450986  0.48450986  1
  Zn  Zn6  1  0.50000000  0.50000000  -0.00000000  1
  Ni  Ni7  1  1.00000000  0.26375268  0.59150691  1
  Ni  Ni8  1  0.67224577  0.40849309  0.40849309  1
  Ni  Ni9  1  1.00000000  0.59150691  0.26375268  1
  Ni  Ni10  1  0.32775423  0.73624732  0.73624732  1
