# generated using pymatgen
data_Cu2Sb2Pd
_symmetry_space_group_name_H-M   'P 1'
_cell_length_a   7.25094587
_cell_length_b   7.25094587
_cell_length_c   3.65284796
_cell_angle_alpha   90.00000000
_cell_angle_beta   90.00000000
_cell_angle_gamma   90.00000000
_symmetry_Int_Tables_number   1
_chemical_formula_structural   Cu2Sb2Pd
_chemical_formula_sum   'Cu4 Sb4 Pd2'
_cell_volume   192.05292340
_cell_formula_units_Z   2
loop_
 _symmetry_equiv_pos_site_id
 _symmetry_equiv_pos_as_xyz
  1  'x, y, z'
loop_
 _atom_site_type_symbol
 _atom_site_label
 _atom_site_symmetry_multiplicity
 _atom_site_fract_x
 _atom_site_fract_y
 _atom_site_fract_z
 _atom_site_occupancy
  Sb  Sb0  1  0.32728807  0.82728807  0.00000000  1
  Sb  Sb1  1  0.82728807  0.67271193  0.00000000  1
  Sb  Sb2  1  0.67271193  0.17271193  0.00000000  1
  Sb  Sb3  1  0.17271193  0.32728807  0.00000000  1
  Cu  Cu4  1  0.12298244  0.62298244  0.50000000  1
  Cu  Cu5  1  0.62298244  0.87701756  0.50000000  1
  Cu  Cu6  1  0.87701756  0.37701756  0.50000000  1
  Cu  Cu7  1  0.37701756  0.12298244  0.50000000  1
  Pd  Pd8  1  0.00000000  0.00000000  0.00000000  1
  Pd  Pd9  1  0.50000000  0.50000000  0.00000000  1
