# generated using pymatgen
data_SmZrNi10
_symmetry_space_group_name_H-M   'P 1'
_cell_length_a   3.96416849
_cell_length_b   4.83584629
_cell_length_c   8.38569819
_cell_angle_alpha   90.00000000
_cell_angle_beta   90.00000000
_cell_angle_gamma   90.00000000
_symmetry_Int_Tables_number   1
_chemical_formula_structural   SmZrNi10
_chemical_formula_sum   'Sm1 Zr1 Ni10'
_cell_volume   160.75475241
_cell_formula_units_Z   1
loop_
 _symmetry_equiv_pos_site_id
 _symmetry_equiv_pos_as_xyz
  1  'x, y, z'
loop_
 _atom_site_type_symbol
 _atom_site_label
 _atom_site_symmetry_multiplicity
 _atom_site_fract_x
 _atom_site_fract_y
 _atom_site_fract_z
 _atom_site_occupancy
  Sm  Sm0  1  0.00000000  0.00000000  0.00000000  1
  Zr  Zr1  1  0.00000000  0.50000000  0.50000000  1
  Ni  Ni2  1  0.00000000  0.00000000  0.34094257  1
  Ni  Ni3  1  0.00000000  0.50000000  0.82291662  1
  Ni  Ni4  1  0.00000000  0.50000000  0.17708338  1
  Ni  Ni5  1  0.00000000  0.00000000  0.65905743  1
  Ni  Ni6  1  0.50000000  0.00000000  0.50000000  1
  Ni  Ni7  1  0.50000000  0.50000000  0.00000000  1
  Ni  Ni8  1  0.50000000  0.25420009  0.25749274  1
  Ni  Ni9  1  0.50000000  0.74579991  0.74250726  1
  Ni  Ni10  1  0.50000000  0.74579991  0.25749274  1
  Ni  Ni11  1  0.50000000  0.25420009  0.74250726  1
