# generated using pymatgen
data_GdAg2Sb
_symmetry_space_group_name_H-M   'P 1'
_cell_length_a   5.04830478
_cell_length_b   5.04760859
_cell_length_c   5.04689330
_cell_angle_alpha   60.00202323
_cell_angle_beta   60.01325808
_cell_angle_gamma   60.01308354
_symmetry_Int_Tables_number   1
_chemical_formula_structural   GdAg2Sb
_chemical_formula_sum   'Gd1 Ag2 Sb1'
_cell_volume   90.95643593
_cell_formula_units_Z   1
loop_
 _symmetry_equiv_pos_site_id
 _symmetry_equiv_pos_as_xyz
  1  'x, y, z'
loop_
 _atom_site_type_symbol
 _atom_site_label
 _atom_site_symmetry_multiplicity
 _atom_site_fract_x
 _atom_site_fract_y
 _atom_site_fract_z
 _atom_site_occupancy
  Sb  Sb0  1  0.75000845  0.74999634  0.74999695  1
  Gd  Gd1  1  0.24999622  0.25000063  0.24999850  1
  Ag  Ag2  1  0.50029176  0.50000133  0.49998630  1
  Ag  Ag3  1  0.99968857  0.99999770  0.00001425  1
