# generated using pymatgen
data_HfGe2Ru
_symmetry_space_group_name_H-M   'P 1'
_cell_length_a   4.17263079
_cell_length_b   4.17263080
_cell_length_c   5.05503639
_cell_angle_alpha   65.62417441
_cell_angle_beta   65.62417444
_cell_angle_gamma   59.99999998
_symmetry_Int_Tables_number   1
_chemical_formula_structural   HfGe2Ru
_chemical_formula_sum   'Hf1 Ge2 Ru1'
_cell_volume   67.00877018
_cell_formula_units_Z   1
loop_
 _symmetry_equiv_pos_site_id
 _symmetry_equiv_pos_as_xyz
  1  'x, y, z'
loop_
 _atom_site_type_symbol
 _atom_site_label
 _atom_site_symmetry_multiplicity
 _atom_site_fract_x
 _atom_site_fract_y
 _atom_site_fract_z
 _atom_site_occupancy
  Ru  Ru0  1  0.00000000  0.00000000  0.00000000  1
  Ge  Ge1  1  0.27233021  0.27233021  0.18301038  1
  Ge  Ge2  1  0.72766979  0.72766979  0.81698962  1
  Hf  Hf3  1  0.50000000  0.50000000  0.50000000  1
