# generated using pymatgen
data_CaSm2DyHg4
_symmetry_space_group_name_H-M   'P 1'
_cell_length_a   5.33248210
_cell_length_b   5.33248211
_cell_length_c   9.22921091
_cell_angle_alpha   73.20839358
_cell_angle_beta   73.20839358
_cell_angle_gamma   60.00000003
_symmetry_Int_Tables_number   1
_chemical_formula_structural   CaSm2DyHg4
_chemical_formula_sum   'Ca1 Sm2 Dy1 Hg4'
_cell_volume   214.25799524
_cell_formula_units_Z   1
loop_
 _symmetry_equiv_pos_site_id
 _symmetry_equiv_pos_as_xyz
  1  'x, y, z'
loop_
 _atom_site_type_symbol
 _atom_site_label
 _atom_site_symmetry_multiplicity
 _atom_site_fract_x
 _atom_site_fract_y
 _atom_site_fract_z
 _atom_site_occupancy
  Ca  Ca0  1  0.00000000  0.00000000  0.00000000  1
  Sm  Sm1  1  0.74841020  0.74841020  0.75476940  1
  Sm  Sm2  1  0.25158980  0.25158980  0.24523060  1
  Dy  Dy3  1  0.50000000  0.50000000  0.50000000  1
  Hg  Hg4  1  0.37672960  0.37672960  0.86981120  1
  Hg  Hg5  1  0.87338012  0.87338012  0.37985963  1
  Hg  Hg6  1  0.12661988  0.12661988  0.62014037  1
  Hg  Hg7  1  0.62327040  0.62327040  0.13018880  1
