# generated using pymatgen
data_KH9Pt2
_symmetry_space_group_name_H-M   'P 1'
_cell_length_a   2.98803572
_cell_length_b   6.43602107
_cell_length_c   6.43602751
_cell_angle_alpha   119.99996879
_cell_angle_beta   90.00000000
_cell_angle_gamma   90.00000000
_symmetry_Int_Tables_number   1
_chemical_formula_structural   KH9Pt2
_chemical_formula_sum   'K1 H9 Pt2'
_cell_volume   107.18941537
_cell_formula_units_Z   1
loop_
 _symmetry_equiv_pos_site_id
 _symmetry_equiv_pos_as_xyz
  1  'x, y, z'
loop_
 _atom_site_type_symbol
 _atom_site_label
 _atom_site_symmetry_multiplicity
 _atom_site_fract_x
 _atom_site_fract_y
 _atom_site_fract_z
 _atom_site_occupancy
  K  K0  1  0.00000000  0.00000000  0.00000000  1
  H  H1  1  0.50000000  0.76309791  0.23690309  1
  H  H2  1  0.00000000  -0.00000000  0.50000000  1
  H  H3  1  0.00000000  0.50000000  0.50000000  1
  H  H4  1  0.50000000  0.76309691  0.52619383  1
  H  H5  1  0.50000000  0.23690209  0.76309691  1
  H  H6  1  0.50000000  0.52619483  0.76309691  1
  H  H7  1  0.50000000  0.23690309  0.47380617  1
  H  H8  1  0.00000000  0.50000000  0.00000000  1
  H  H9  1  0.50000000  0.47380517  0.23690309  1
  Pt  Pt10  1  0.00000000  0.66666700  0.33333300  1
  Pt  Pt11  1  0.00000000  0.33333300  0.66666700  1
