# generated using pymatgen
data_Np(InS2)2
_symmetry_space_group_name_H-M   'P 1'
_cell_length_a   6.36285387
_cell_length_b   6.36285387
_cell_length_c   6.36285387
_cell_angle_alpha   106.76906741
_cell_angle_beta   106.76906732
_cell_angle_gamma   115.02224860
_symmetry_Int_Tables_number   1
_chemical_formula_structural   Np(InS2)2
_chemical_formula_sum   'Np1 In2 S4'
_cell_volume   196.89549461
_cell_formula_units_Z   1
loop_
 _symmetry_equiv_pos_site_id
 _symmetry_equiv_pos_as_xyz
  1  'x, y, z'
loop_
 _atom_site_type_symbol
 _atom_site_label
 _atom_site_symmetry_multiplicity
 _atom_site_fract_x
 _atom_site_fract_y
 _atom_site_fract_z
 _atom_site_occupancy
  Np  Np0  1  0.50000000  0.50000000  0.00000000  1
  In  In1  1  0.25000000  0.75000000  0.50000000  1
  In  In2  1  0.75000000  0.25000000  0.50000000  1
  S  S3  1  0.32129593  0.17800536  0.49930129  1
  S  S4  1  0.82199464  0.32129493  0.14329057  1
  S  S5  1  0.17800536  0.67870507  0.85670943  1
  S  S6  1  0.67870407  0.82199464  0.50069871  1
