# generated using pymatgen
data_Dy2GeS4
_symmetry_space_group_name_H-M   'P 1'
_cell_length_a   6.12431567
_cell_length_b   6.12431567
_cell_length_c   7.37770892
_cell_angle_alpha   114.52280450
_cell_angle_beta   114.52280450
_cell_angle_gamma   90.00000000
_symmetry_Int_Tables_number   1
_chemical_formula_structural   Dy2GeS4
_chemical_formula_sum   'Dy2 Ge1 S4'
_cell_volume   224.03150878
_cell_formula_units_Z   1
loop_
 _symmetry_equiv_pos_site_id
 _symmetry_equiv_pos_as_xyz
  1  'x, y, z'
loop_
 _atom_site_type_symbol
 _atom_site_label
 _atom_site_symmetry_multiplicity
 _atom_site_fract_x
 _atom_site_fract_y
 _atom_site_fract_z
 _atom_site_occupancy
  Dy  Dy0  1  0.75000000  0.25000000  0.50000000  1
  Dy  Dy1  1  0.25000000  0.75000000  0.50000000  1
  Ge  Ge2  1  0.50000000  0.50000000  0.00000000  1
  S  S3  1  0.87068431  0.38348402  0.25416832  1
  S  S4  1  0.38348302  0.87068531  0.25416832  1
  S  S5  1  0.61651698  0.61651598  0.74583168  1
  S  S6  1  0.12931569  0.12931469  0.74583168  1
