# generated using pymatgen
data_RbIn
_symmetry_space_group_name_H-M   'P 1'
_cell_length_a   5.07523000
_cell_length_b   10.93684000
_cell_length_c   8.28442000
_cell_angle_alpha   90.00000000
_cell_angle_beta   127.49843000
_cell_angle_gamma   90.00000000
_symmetry_Int_Tables_number   1
_chemical_formula_structural   RbIn
_chemical_formula_sum   'Rb4 In4'
_cell_volume   364.82574787
_cell_formula_units_Z   4
loop_
 _symmetry_equiv_pos_site_id
 _symmetry_equiv_pos_as_xyz
  1  'x, y, z'
loop_
 _atom_site_type_symbol
 _atom_site_label
 _atom_site_symmetry_multiplicity
 _atom_site_fract_x
 _atom_site_fract_y
 _atom_site_fract_z
 _atom_site_occupancy
  Rb  Rb0  1  0.75000000  0.59496000  0.75000000  1
  Rb  Rb1  1  0.25000000  0.40504000  0.25000000  1
  Rb  Rb2  1  0.75000000  0.09496000  0.25000000  1
  Rb  Rb3  1  0.25000000  0.90504000  0.75000000  1
  In  In4  1  0.75000000  0.19187000  0.75000000  1
  In  In5  1  0.25000000  0.80813000  0.25000000  1
  In  In6  1  0.75000000  0.69187000  0.25000000  1
  In  In7  1  0.25000000  0.30813000  0.75000000  1
