# generated using pymatgen
data_Ca2Pr(AgSn)2
_symmetry_space_group_name_H-M   'P 1'
_cell_length_a   4.87124883
_cell_length_b   4.87124882
_cell_length_c   9.77060126
_cell_angle_alpha   75.56503553
_cell_angle_beta   75.56503554
_cell_angle_gamma   60.00000002
_symmetry_Int_Tables_number   1
_chemical_formula_structural   Ca2Pr(AgSn)2
_chemical_formula_sum   'Ca2 Pr1 Ag2 Sn2'
_cell_volume   192.28775920
_cell_formula_units_Z   1
loop_
 _symmetry_equiv_pos_site_id
 _symmetry_equiv_pos_as_xyz
  1  'x, y, z'
loop_
 _atom_site_type_symbol
 _atom_site_label
 _atom_site_symmetry_multiplicity
 _atom_site_fract_x
 _atom_site_fract_y
 _atom_site_fract_z
 _atom_site_occupancy
  Ca  Ca0  1  0.12863540  0.12863540  0.61409479  1
  Ca  Ca1  1  0.87136460  0.87136460  0.38590521  1
  Pr  Pr2  1  0.00000000  0.00000000  0.00000000  1
  Ag  Ag3  1  0.59826956  0.59826956  0.20519133  1
  Ag  Ag4  1  0.40173044  0.40173044  0.79480867  1
  Sn  Sn5  1  0.74066525  0.74066525  0.77800524  1
  Sn  Sn6  1  0.25933475  0.25933475  0.22199476  1
