# generated using pymatgen
data_LiPm2CdAu4
_symmetry_space_group_name_H-M   'P 1'
_cell_length_a   5.05707913
_cell_length_b   5.05707912
_cell_length_c   8.45982792
_cell_angle_alpha   72.60918447
_cell_angle_beta   72.60918449
_cell_angle_gamma   60.00000002
_symmetry_Int_Tables_number   1
_chemical_formula_structural   LiPm2CdAu4
_chemical_formula_sum   'Li1 Pm2 Cd1 Au4'
_cell_volume   175.85390979
_cell_formula_units_Z   1
loop_
 _symmetry_equiv_pos_site_id
 _symmetry_equiv_pos_as_xyz
  1  'x, y, z'
loop_
 _atom_site_type_symbol
 _atom_site_label
 _atom_site_symmetry_multiplicity
 _atom_site_fract_x
 _atom_site_fract_y
 _atom_site_fract_z
 _atom_site_occupancy
  Li  Li0  1  0.50000000  0.50000000  0.50000000  1
  Pm  Pm1  1  0.74695625  0.74695625  0.75913126  1
  Pm  Pm2  1  0.25304375  0.25304375  0.24086874  1
  Cd  Cd3  1  0.00000000  0.00000000  0.00000000  1
  Au  Au4  1  0.38396844  0.38396844  0.84809469  1
  Au  Au5  1  0.87424412  0.87424412  0.37726765  1
  Au  Au6  1  0.12575588  0.12575588  0.62273235  1
  Au  Au7  1  0.61603156  0.61603156  0.15190531  1
