# generated using pymatgen
data_DyPd6Pt23
_symmetry_space_group_name_H-M   'P 1'
_cell_length_a   9.62270920
_cell_length_b   9.62270317
_cell_length_c   7.92860516
_cell_angle_alpha   65.67115214
_cell_angle_beta   65.67108418
_cell_angle_gamma   48.65776987
_symmetry_Int_Tables_number   1
_chemical_formula_structural   DyPd6Pt23
_chemical_formula_sum   'Dy1 Pd6 Pt23'
_cell_volume   491.63793632
_cell_formula_units_Z   1
loop_
 _symmetry_equiv_pos_site_id
 _symmetry_equiv_pos_as_xyz
  1  'x, y, z'
loop_
 _atom_site_type_symbol
 _atom_site_label
 _atom_site_symmetry_multiplicity
 _atom_site_fract_x
 _atom_site_fract_y
 _atom_site_fract_z
 _atom_site_occupancy
  Dy  Dy0  1  0.50000000  0.50000000  0.50000000  1
  Pd  Pd1  1  0.74778701  0.74778701  0.25221299  1
  Pd  Pd2  1  0.25221299  0.25221299  0.74778701  1
  Pd  Pd3  1  0.75169361  0.24830639  0.24830639  1
  Pd  Pd4  1  0.24830639  0.75169361  0.75169361  1
  Pd  Pd5  1  0.75169661  0.24830339  0.75169661  1
  Pd  Pd6  1  0.24830339  0.75169661  0.24830339  1
  Pt  Pt7  1  0.62086998  0.12284649  0.12814227  1
  Pt  Pt8  1  0.37913002  0.87715351  0.87185773  1
  Pt  Pt9  1  0.12814227  0.12814027  0.62086998  1
  Pt  Pt10  1  0.12814027  0.12814227  0.12284649  1
  Pt  Pt11  1  0.87185773  0.87185973  0.37913002  1
  Pt  Pt12  1  0.87185973  0.87185773  0.87715351  1
  Pt  Pt13  1  0.12284649  0.62086998  0.12814027  1
  Pt  Pt14  1  0.87715351  0.37913002  0.87185973  1
  Pt  Pt15  1  0.50000000  0.50000000  0.00000000  1
  Pt  Pt16  1  0.00000000  0.00000000  0.50000000  1
  Pt  Pt17  1  0.50000000  0.00000000  -0.00000000  1
  Pt  Pt18  1  0.00000000  0.50000000  0.50000000  1
  Pt  Pt19  1  0.50000000  0.00000000  0.50000000  1
  Pt  Pt20  1  -0.00000000  0.50000000  0.00000000  1
  Pt  Pt21  1  0.89209068  0.36946467  0.36922382  1
  Pt  Pt22  1  0.10790932  0.63053533  0.63077618  1
  Pt  Pt23  1  0.36922382  0.36922082  0.89209068  1
  Pt  Pt24  1  0.36922082  0.36922382  0.36946467  1
  Pt  Pt25  1  0.63077618  0.63077918  0.10790932  1
  Pt  Pt26  1  0.63077918  0.63077618  0.63053533  1
  Pt  Pt27  1  0.36946467  0.89209068  0.36922082  1
  Pt  Pt28  1  0.63053533  0.10790932  0.63077918  1
  Pt  Pt29  1  0.00000000  0.00000000  0.00000000  1
