# generated using pymatgen
data_Rb5PuO6
_symmetry_space_group_name_H-M   'P 1'
_cell_length_a   6.69925710
_cell_length_b   6.87473195
_cell_length_c   6.84004409
_cell_angle_alpha   59.83212151
_cell_angle_beta   79.87963647
_cell_angle_gamma   69.53349330
_symmetry_Int_Tables_number   1
_chemical_formula_structural   Rb5PuO6
_chemical_formula_sum   'Rb5 Pu1 O6'
_cell_volume   255.16273216
_cell_formula_units_Z   1
loop_
 _symmetry_equiv_pos_site_id
 _symmetry_equiv_pos_as_xyz
  1  'x, y, z'
loop_
 _atom_site_type_symbol
 _atom_site_label
 _atom_site_symmetry_multiplicity
 _atom_site_fract_x
 _atom_site_fract_y
 _atom_site_fract_z
 _atom_site_occupancy
  O  O0  1  0.81307701  0.82081259  0.00000000  1
  O  O1  1  0.80838541  0.06297973  0.24344016  1
  O  O2  1  0.19161459  0.69358111  0.24344016  1
  O  O3  1  0.19161459  0.93702027  0.75655984  1
  O  O4  1  0.80838541  0.30641889  0.75655984  1
  O  O5  1  0.18692299  0.17918741  1.00000000  1
  Rb  Rb6  1  0.50000000  0.16349306  0.67301288  1
  Rb  Rb7  1  1.00000000  0.66686256  0.66627488  1
  Rb  Rb8  1  -0.00000000  0.33313744  0.33372512  1
  Rb  Rb9  1  0.50000000  0.50000000  0.00000000  1
  Rb  Rb10  1  0.50000000  0.83650694  0.32698712  1
  Pu  Pu11  1  0.00000000  0.00000000  0.00000000  1
