# generated using pymatgen
data_NaBRh2
_symmetry_space_group_name_H-M   'P 1'
_cell_length_a   2.90983208
_cell_length_b   2.90983208
_cell_length_c   7.89131026
_cell_angle_alpha   79.37563143
_cell_angle_beta   79.37563145
_cell_angle_gamma   59.99999998
_symmetry_Int_Tables_number   1
_chemical_formula_structural   NaBRh2
_chemical_formula_sum   'Na1 B1 Rh2'
_cell_volume   56.53844885
_cell_formula_units_Z   1
loop_
 _symmetry_equiv_pos_site_id
 _symmetry_equiv_pos_as_xyz
  1  'x, y, z'
loop_
 _atom_site_type_symbol
 _atom_site_label
 _atom_site_symmetry_multiplicity
 _atom_site_fract_x
 _atom_site_fract_y
 _atom_site_fract_z
 _atom_site_occupancy
  Na  Na0  1  0.50000000  0.50000000  0.50000000  1
  B  B1  1  0.00000000  0.00000000  0.00000000  1
  Rh  Rh2  1  0.72335542  0.72335542  0.82993274  1
  Rh  Rh3  1  0.27664458  0.27664458  0.17006726  1
