# generated using pymatgen
data_EuSbSe3
_symmetry_space_group_name_H-M   'P 1'
_cell_length_a   9.39026407
_cell_length_b   5.74460063
_cell_length_c   17.86977487
_cell_angle_alpha   90.00000000
_cell_angle_beta   90.00000000
_cell_angle_gamma   90.00011086
_symmetry_Int_Tables_number   1
_chemical_formula_structural   EuSbSe3
_chemical_formula_sum   'Eu2 Sb2 Se6'
_cell_volume   963.95492861
_cell_formula_units_Z   2
loop_
 _symmetry_equiv_pos_site_id
 _symmetry_equiv_pos_as_xyz
  1  'x, y, z'
loop_
 _atom_site_type_symbol
 _atom_site_label
 _atom_site_symmetry_multiplicity
 _atom_site_fract_x
 _atom_site_fract_y
 _atom_site_fract_z
 _atom_site_occupancy
  Eu  Eu0  1  0.99999913  0.27483518  0.44466660  1
  Eu  Eu1  1  0.49999909  0.77483518  0.44466660  1
  Sb  Sb2  1  0.00000036  0.75779669  0.56547663  1
  Sb  Sb3  1  0.50000049  0.25779671  0.56547664  1
  Se  Se4  1  0.83612137  0.77302933  0.44308814  1
  Se  Se5  1  0.16387683  0.77302935  0.44308743  1
  Se  Se6  1  0.33612142  0.27302939  0.44308814  1
  Se  Se7  1  0.66387689  0.27302931  0.44308742  1
  Se  Se8  1  0.99999886  0.33188745  0.60368121  1
  Se  Se9  1  0.49999900  0.83188747  0.60368121  1
