# generated using pymatgen
data_DyTm2ThRu4
_symmetry_space_group_name_H-M   'P 1'
_cell_length_a   4.83162724
_cell_length_b   4.83162724
_cell_length_c   8.33425671
_cell_angle_alpha   73.15009524
_cell_angle_beta   73.15009525
_cell_angle_gamma   59.99999999
_symmetry_Int_Tables_number   1
_chemical_formula_structural   DyTm2ThRu4
_chemical_formula_sum   'Dy1 Tm2 Th1 Ru4'
_cell_volume   158.77555941
_cell_formula_units_Z   1
loop_
 _symmetry_equiv_pos_site_id
 _symmetry_equiv_pos_as_xyz
  1  'x, y, z'
loop_
 _atom_site_type_symbol
 _atom_site_label
 _atom_site_symmetry_multiplicity
 _atom_site_fract_x
 _atom_site_fract_y
 _atom_site_fract_z
 _atom_site_occupancy
  Dy  Dy0  1  0.00000000  0.00000000  0.00000000  1
  Tm  Tm1  1  0.74597873  0.74597873  0.76206380  1
  Tm  Tm2  1  0.25402127  0.25402127  0.23793620  1
  Th  Th3  1  0.50000000  0.50000000  0.50000000  1
  Ru  Ru4  1  0.37756896  0.37756896  0.86729313  1
  Ru  Ru5  1  0.87301232  0.87301232  0.38096305  1
  Ru  Ru6  1  0.12698768  0.12698768  0.61903695  1
  Ru  Ru7  1  0.62243104  0.62243104  0.13270687  1
