# generated using pymatgen
data_Te2S3Cl4
_symmetry_space_group_name_H-M   'P 1'
_cell_length_a   9.70216196
_cell_length_b   9.70216196
_cell_length_c   6.74432114
_cell_angle_alpha   68.13885514
_cell_angle_beta   68.13885514
_cell_angle_gamma   98.24316638
_symmetry_Int_Tables_number   1
_chemical_formula_structural   Te2S3Cl4
_chemical_formula_sum   'Te4 S6 Cl8'
_cell_volume   516.69018143
_cell_formula_units_Z   2
loop_
 _symmetry_equiv_pos_site_id
 _symmetry_equiv_pos_as_xyz
  1  'x, y, z'
loop_
 _atom_site_type_symbol
 _atom_site_label
 _atom_site_symmetry_multiplicity
 _atom_site_fract_x
 _atom_site_fract_y
 _atom_site_fract_z
 _atom_site_occupancy
  Te  Te0  1  0.73663782  0.59957243  0.41645585  1
  Te  Te1  1  0.40042757  0.26336218  0.08354415  1
  Te  Te2  1  0.26336218  0.40042757  0.58354415  1
  Te  Te3  1  0.59957243  0.73663782  0.91645585  1
  S  S4  1  0.74934144  0.84003851  0.09865360  1
  S  S5  1  0.15996149  0.25065856  0.40134640  1
  S  S6  1  0.25065856  0.15996149  0.90134640  1
  S  S7  1  0.84003851  0.74934144  0.59865360  1
  S  S8  1  0.45231238  0.54768762  0.75000000  1
  S  S9  1  0.54768762  0.45231238  0.25000000  1
  Cl  Cl10  1  0.18845649  0.69436829  0.55613023  1
  Cl  Cl11  1  0.30563171  0.81154351  0.94386977  1
  Cl  Cl12  1  0.81154351  0.30563171  0.44386977  1
  Cl  Cl13  1  0.69436829  0.18845649  0.05613023  1
  Cl  Cl14  1  0.96837662  0.40106975  0.81517625  1
  Cl  Cl15  1  0.59893025  0.03162338  0.68482375  1
  Cl  Cl16  1  0.03162338  0.59893025  0.18482375  1
  Cl  Cl17  1  0.40106975  0.96837662  0.31517625  1
