# generated using pymatgen
data_Nd6Er2Tm3Mg
_symmetry_space_group_name_H-M   'P 1'
_cell_length_a   6.20922954
_cell_length_b   6.20922954
_cell_length_c   11.70775419
_cell_angle_alpha   95.08320397
_cell_angle_beta   95.08320398
_cell_angle_gamma   120.02173881
_symmetry_Int_Tables_number   1
_chemical_formula_structural   Nd6Er2Tm3Mg
_chemical_formula_sum   'Nd6 Er2 Tm3 Mg1'
_cell_volume   384.63761610
_cell_formula_units_Z   1
loop_
 _symmetry_equiv_pos_site_id
 _symmetry_equiv_pos_as_xyz
  1  'x, y, z'
loop_
 _atom_site_type_symbol
 _atom_site_label
 _atom_site_symmetry_multiplicity
 _atom_site_fract_x
 _atom_site_fract_y
 _atom_site_fract_z
 _atom_site_occupancy
  Nd  Nd0  1  0.91711138  0.58414323  0.75054954  1
  Nd  Nd1  1  0.74988245  0.74988245  0.25041053  1
  Nd  Nd2  1  0.08288862  0.41585677  0.24945046  1
  Nd  Nd3  1  0.58414323  0.91711138  0.75054954  1
  Nd  Nd4  1  0.25011755  0.25011755  0.74958947  1
  Nd  Nd5  1  0.41585677  0.08288862  0.24945046  1
  Er  Er6  1  0.33342989  0.66657011  0.00000000  1
  Er  Er7  1  0.66657011  0.33342989  0.00000000  1
  Tm  Tm8  1  0.16665149  0.83334851  0.50000000  1
  Tm  Tm9  1  0.83334851  0.16665149  0.50000000  1
  Tm  Tm10  1  0.50000000  0.50000000  0.50000000  1
  Mg  Mg11  1  0.00000000  0.00000000  0.00000000  1
