# generated using pymatgen
data_U3(P3Rh10)2
_symmetry_space_group_name_H-M   'P 1'
_cell_length_a   8.48608815
_cell_length_b   8.48608806
_cell_length_c   8.48608810
_cell_angle_alpha   60.00000211
_cell_angle_beta   60.00000694
_cell_angle_gamma   59.99999982
_symmetry_Int_Tables_number   1
_chemical_formula_structural   U3(P3Rh10)2
_chemical_formula_sum   'U3 P6 Rh20'
_cell_volume   432.12325669
_cell_formula_units_Z   1
loop_
 _symmetry_equiv_pos_site_id
 _symmetry_equiv_pos_as_xyz
  1  'x, y, z'
loop_
 _atom_site_type_symbol
 _atom_site_label
 _atom_site_symmetry_multiplicity
 _atom_site_fract_x
 _atom_site_fract_y
 _atom_site_fract_z
 _atom_site_occupancy
  U  U0  1  0.75000000  0.75000000  0.75000000  1
  U  U1  1  0.25000000  0.25000000  0.25000000  1
  U  U2  1  0.00000000  0.00000000  0.00000000  1
  P  P3  1  0.27143257  0.72856743  0.72856743  1
  P  P4  1  0.72856743  0.27143257  0.27143257  1
  P  P5  1  0.27143257  0.27143257  0.72856743  1
  P  P6  1  0.72856743  0.27143257  0.72856743  1
  P  P7  1  0.27143257  0.72856743  0.27143257  1
  P  P8  1  0.72856743  0.72856743  0.27143257  1
  Rh  Rh9  1  0.37980738  0.37980738  0.86057686  1
  Rh  Rh10  1  0.13942414  0.62019162  0.62019162  1
  Rh  Rh11  1  0.65986127  1.00000000  0.00000000  1
  Rh  Rh12  1  0.65986127  0.34013873  -0.00000000  1
  Rh  Rh13  1  -0.00000000  0.00000000  0.65986127  1
  Rh  Rh14  1  0.37980738  0.86057686  0.37980738  1
  Rh  Rh15  1  0.00000000  0.34013873  0.65986127  1
  Rh  Rh16  1  0.65986127  1.00000000  0.34013873  1
  Rh  Rh17  1  1.00000000  0.65986127  -0.00000000  1
  Rh  Rh18  1  1.00000000  0.00000000  0.34013873  1
  Rh  Rh19  1  0.34013873  0.00000000  0.65986127  1
  Rh  Rh20  1  0.00000000  0.34013873  1.00000000  1
  Rh  Rh21  1  0.34013873  0.65986127  1.00000000  1
  Rh  Rh22  1  0.34013873  0.00000000  1.00000000  1
  Rh  Rh23  1  0.37980738  0.37980738  0.37980738  1
  Rh  Rh24  1  0.62019262  0.62019262  0.13942314  1
  Rh  Rh25  1  0.62019262  0.62019262  0.62019262  1
  Rh  Rh26  1  0.62019262  0.13942314  0.62019262  1
  Rh  Rh27  1  0.86057586  0.37980838  0.37980838  1
  Rh  Rh28  1  1.00000000  0.65986127  0.34013873  1
