# generated using pymatgen
data_PaCoRe
_symmetry_space_group_name_H-M   'P 1'
_cell_length_a   3.22031926
_cell_length_b   7.61217412
_cell_length_c   7.61217412
_cell_angle_alpha   119.99999998
_cell_angle_beta   90.00000000
_cell_angle_gamma   90.00000000
_symmetry_Int_Tables_number   1
_chemical_formula_structural   PaCoRe
_chemical_formula_sum   'Pa3 Co3 Re3'
_cell_volume   161.60209583
_cell_formula_units_Z   3
loop_
 _symmetry_equiv_pos_site_id
 _symmetry_equiv_pos_as_xyz
  1  'x, y, z'
loop_
 _atom_site_type_symbol
 _atom_site_label
 _atom_site_symmetry_multiplicity
 _atom_site_fract_x
 _atom_site_fract_y
 _atom_site_fract_z
 _atom_site_occupancy
  Pa  Pa0  1  0.00000000  0.00000000  0.70265988  1
  Pa  Pa1  1  0.00000000  0.70265988  0.00000000  1
  Pa  Pa2  1  0.00000000  0.29734012  0.29734012  1
  Re  Re3  1  0.00000000  0.66666700  0.33333300  1
  Re  Re4  1  0.00000000  0.33333300  0.66666700  1
  Re  Re5  1  0.50000000  0.00000000  0.00000000  1
  Co  Co6  1  0.50000000  0.00000000  0.43956518  1
  Co  Co7  1  0.50000000  0.56043482  0.56043482  1
  Co  Co8  1  0.50000000  0.43956518  0.00000000  1
