# generated using pymatgen
data_BeTc2Ru
_symmetry_space_group_name_H-M   'P 1'
_cell_length_a   2.81762358
_cell_length_b   2.81762358
_cell_length_c   6.42141920
_cell_angle_alpha   90.00000000
_cell_angle_beta   90.00000000
_cell_angle_gamma   90.00000000
_symmetry_Int_Tables_number   1
_chemical_formula_structural   BeTc2Ru
_chemical_formula_sum   'Be1 Tc2 Ru1'
_cell_volume   50.97966397
_cell_formula_units_Z   1
loop_
 _symmetry_equiv_pos_site_id
 _symmetry_equiv_pos_as_xyz
  1  'x, y, z'
loop_
 _atom_site_type_symbol
 _atom_site_label
 _atom_site_symmetry_multiplicity
 _atom_site_fract_x
 _atom_site_fract_y
 _atom_site_fract_z
 _atom_site_occupancy
  Ru  Ru0  1  0.50000000  0.50000000  0.71580430  1
  Tc  Tc1  1  0.00000000  0.00000000  0.99556257  1
  Tc  Tc2  1  0.50000000  0.50000000  0.27820232  1
  Be  Be3  1  0.00000000  0.00000000  0.51043082  1
