# generated using pymatgen
data_NdBi2Pd
_symmetry_space_group_name_H-M   'P 1'
_cell_length_a   3.55702876
_cell_length_b   3.55702876
_cell_length_c   10.75353350
_cell_angle_alpha   80.48017654
_cell_angle_beta   80.48017656
_cell_angle_gamma   60.00000001
_symmetry_Int_Tables_number   1
_chemical_formula_structural   NdBi2Pd
_chemical_formula_sum   'Nd1 Bi2 Pd1'
_cell_volume   115.66152322
_cell_formula_units_Z   1
loop_
 _symmetry_equiv_pos_site_id
 _symmetry_equiv_pos_as_xyz
  1  'x, y, z'
loop_
 _atom_site_type_symbol
 _atom_site_label
 _atom_site_symmetry_multiplicity
 _atom_site_fract_x
 _atom_site_fract_y
 _atom_site_fract_z
 _atom_site_occupancy
  Nd  Nd0  1  0.00000000  0.00000000  0.00000000  1
  Bi  Bi1  1  0.10349090  0.10349090  0.68952830  1
  Bi  Bi2  1  0.89650910  0.89650910  0.31047170  1
  Pd  Pd3  1  0.50000000  0.50000000  0.50000000  1
