# generated using pymatgen
data_Th2Ge3Pt5
_symmetry_space_group_name_H-M   'P 1'
_cell_length_a   4.24543388
_cell_length_b   7.58750990
_cell_length_c   12.51163004
_cell_angle_alpha   90.00000000
_cell_angle_beta   99.76801849
_cell_angle_gamma   90.00000000
_symmetry_Int_Tables_number   1
_chemical_formula_structural   Th2Ge3Pt5
_chemical_formula_sum   'Th4 Ge6 Pt10'
_cell_volume   397.18522843
_cell_formula_units_Z   2
loop_
 _symmetry_equiv_pos_site_id
 _symmetry_equiv_pos_as_xyz
  1  'x, y, z'
loop_
 _atom_site_type_symbol
 _atom_site_label
 _atom_site_symmetry_multiplicity
 _atom_site_fract_x
 _atom_site_fract_y
 _atom_site_fract_z
 _atom_site_occupancy
  Th  Th0  1  0.48476351  0.76363335  0.96952702  1
  Th  Th1  1  0.18021548  0.72600635  0.36043096  1
  Th  Th2  1  0.81978452  0.22600635  0.63956904  1
  Th  Th3  1  0.51523649  0.26363335  0.03047298  1
  Ge  Ge4  1  0.79001679  0.67765064  0.58003358  1
  Ge  Ge5  1  0.60595278  0.53888450  0.21190556  1
  Ge  Ge6  1  0.07588874  0.02554700  0.15177747  1
  Ge  Ge7  1  0.20998321  0.17765064  0.41996742  1
  Ge  Ge8  1  0.92411126  0.52554700  0.84822253  1
  Ge  Ge9  1  0.39404722  0.03888450  0.78809444  1
  Pt  Pt10  1  0.39832822  0.37240923  0.79665644  1
  Pt  Pt11  1  0.27501234  0.48023714  0.55002568  1
  Pt  Pt12  1  0.72498766  0.98023714  0.44997432  1
  Pt  Pt13  1  0.12117696  0.33624045  0.24235393  1
  Pt  Pt14  1  0.29781686  0.90039797  0.59563371  1
  Pt  Pt15  1  0.96943776  0.04380438  0.93887453  1
  Pt  Pt16  1  0.70218314  0.40039797  0.40436629  1
  Pt  Pt17  1  0.87882304  0.83624045  0.75764607  1
  Pt  Pt18  1  0.03056224  0.54380438  0.06112547  1
  Pt  Pt19  1  0.60167178  0.87240923  0.20334356  1
