# generated using pymatgen
data_MgBPt3
_symmetry_space_group_name_H-M   'P 1'
_cell_length_a   5.59931848
_cell_length_b   8.83426953
_cell_length_c   5.89525559
_cell_angle_alpha   90.00000000
_cell_angle_beta   90.00000000
_cell_angle_gamma   90.00000000
_symmetry_Int_Tables_number   1
_chemical_formula_structural   MgBPt3
_chemical_formula_sum   'Mg4 B4 Pt12'
_cell_volume   291.61405650
_cell_formula_units_Z   4
loop_
 _symmetry_equiv_pos_site_id
 _symmetry_equiv_pos_as_xyz
  1  'x, y, z'
loop_
 _atom_site_type_symbol
 _atom_site_label
 _atom_site_symmetry_multiplicity
 _atom_site_fract_x
 _atom_site_fract_y
 _atom_site_fract_z
 _atom_site_occupancy
  Mg  Mg0  1  0.61512331  0.25000000  0.44399698  1
  Mg  Mg1  1  0.88487669  0.75000000  0.94399698  1
  Mg  Mg2  1  0.38487669  0.75000000  0.55600302  1
  Mg  Mg3  1  0.11512331  0.25000000  0.05600302  1
  B  B4  1  0.00000000  0.00000000  0.50000000  1
  B  B5  1  0.50000000  0.50000000  0.00000000  1
  B  B6  1  0.50000000  0.00000000  0.00000000  1
  B  B7  1  0.00000000  0.50000000  0.50000000  1
  Pt  Pt8  1  0.17061775  0.98606238  0.82206525  1
  Pt  Pt9  1  0.32938225  0.48606238  0.32206525  1
  Pt  Pt10  1  0.32938225  0.01393762  0.32206525  1
  Pt  Pt11  1  0.82938225  0.48606238  0.17793475  1
  Pt  Pt12  1  0.82938225  0.01393762  0.17793475  1
  Pt  Pt13  1  0.67061775  0.51393762  0.67793475  1
  Pt  Pt14  1  0.67061775  0.98606238  0.67793475  1
  Pt  Pt15  1  0.17061775  0.51393762  0.82206525  1
  Pt  Pt16  1  0.60249990  0.25000000  0.93946034  1
  Pt  Pt17  1  0.89750010  0.75000000  0.43946034  1
  Pt  Pt18  1  0.39750010  0.75000000  0.06053966  1
  Pt  Pt19  1  0.10249990  0.25000000  0.56053966  1
