# generated using pymatgen
data_Ce3DyAs4
_symmetry_space_group_name_H-M   'P 1'
_cell_length_a   4.19401627
_cell_length_b   7.26016814
_cell_length_c   7.26016814
_cell_angle_alpha   109.46047266
_cell_angle_beta   90.00000000
_cell_angle_gamma   90.00000000
_symmetry_Int_Tables_number   1
_chemical_formula_structural   Ce3DyAs4
_chemical_formula_sum   'Ce3 Dy1 As4'
_cell_volume   208.43757021
_cell_formula_units_Z   1
loop_
 _symmetry_equiv_pos_site_id
 _symmetry_equiv_pos_as_xyz
  1  'x, y, z'
loop_
 _atom_site_type_symbol
 _atom_site_label
 _atom_site_symmetry_multiplicity
 _atom_site_fract_x
 _atom_site_fract_y
 _atom_site_fract_z
 _atom_site_occupancy
  Ce  Ce0  1  0.00000000  0.00000000  0.50000000  1
  Ce  Ce1  1  0.50000000  0.50000000  0.50000000  1
  Ce  Ce2  1  0.00000000  0.50000000  0.00000000  1
  Dy  Dy3  1  0.50000000  0.00000000  0.00000000  1
  As  As4  1  0.00000000  0.24687894  0.24687894  1
  As  As5  1  0.50000000  0.75187477  0.24812523  1
  As  As6  1  0.00000000  0.75312106  0.75312106  1
  As  As7  1  0.50000000  0.24812523  0.75187477  1
