# generated using pymatgen
data_Tl2CuGeS4
_symmetry_space_group_name_H-M   'P 1'
_cell_length_a   7.04110735
_cell_length_b   7.04163214
_cell_length_c   6.36583030
_cell_angle_alpha   123.58741217
_cell_angle_beta   123.59629919
_cell_angle_gamma   89.99075245
_symmetry_Int_Tables_number   1
_chemical_formula_structural   Tl2CuGeS4
_chemical_formula_sum   'Tl2 Cu1 Ge1 S4'
_cell_volume   196.56946284
_cell_formula_units_Z   1
loop_
 _symmetry_equiv_pos_site_id
 _symmetry_equiv_pos_as_xyz
  1  'x, y, z'
loop_
 _atom_site_type_symbol
 _atom_site_label
 _atom_site_symmetry_multiplicity
 _atom_site_fract_x
 _atom_site_fract_y
 _atom_site_fract_z
 _atom_site_occupancy
  Tl  Tl0  1  0.48582561  0.98575305  0.97169665  1
  Tl  Tl1  1  0.23587814  0.23581715  0.47168048  1
  Cu  Cu2  1  0.73622993  0.73622170  0.47219002  1
  Ge  Ge3  1  0.98578828  0.48584196  0.97176421  1
  S  S4  1  0.69136701  0.57073538  0.67777320  1
  S  S5  1  0.90072611  0.48507265  0.26528438  1
  S  S6  1  0.36462253  0.78037271  0.26574600  1
  S  S7  1  0.98661540  0.10723539  0.67796706  1
