# generated using pymatgen
data_PrNi4Sb
_symmetry_space_group_name_H-M   'P 1'
_cell_length_a   5.09524743
_cell_length_b   5.09524744
_cell_length_c   5.09524744
_cell_angle_alpha   59.99999998
_cell_angle_beta   59.99999998
_cell_angle_gamma   59.99999999
_symmetry_Int_Tables_number   1
_chemical_formula_structural   PrNi4Sb
_chemical_formula_sum   'Pr1 Ni4 Sb1'
_cell_volume   93.53644054
_cell_formula_units_Z   1
loop_
 _symmetry_equiv_pos_site_id
 _symmetry_equiv_pos_as_xyz
  1  'x, y, z'
loop_
 _atom_site_type_symbol
 _atom_site_label
 _atom_site_symmetry_multiplicity
 _atom_site_fract_x
 _atom_site_fract_y
 _atom_site_fract_z
 _atom_site_occupancy
  Pr  Pr0  1  0.25000000  0.25000000  0.25000000  1
  Sb  Sb1  1  0.00000000  0.00000000  0.00000000  1
  Ni  Ni2  1  0.62536713  0.62536613  0.12390061  1
  Ni  Ni3  1  0.62536713  0.12390061  0.62536613  1
  Ni  Ni4  1  0.62536713  0.62536613  0.62536613  1
  Ni  Ni5  1  0.12390161  0.62536613  0.62536613  1
