# generated using pymatgen
data_NdGdThSc
_symmetry_space_group_name_H-M   'P 1'
_cell_length_a   5.59460463
_cell_length_b   5.59460462
_cell_length_c   5.59460462
_cell_angle_alpha   60.00000005
_cell_angle_beta   60.00000003
_cell_angle_gamma   60.00000003
_symmetry_Int_Tables_number   1
_chemical_formula_structural   NdGdThSc
_chemical_formula_sum   'Nd1 Gd1 Th1 Sc1'
_cell_volume   123.82068517
_cell_formula_units_Z   1
loop_
 _symmetry_equiv_pos_site_id
 _symmetry_equiv_pos_as_xyz
  1  'x, y, z'
loop_
 _atom_site_type_symbol
 _atom_site_label
 _atom_site_symmetry_multiplicity
 _atom_site_fract_x
 _atom_site_fract_y
 _atom_site_fract_z
 _atom_site_occupancy
  Sc  Sc0  1  0.00000000  0.00000000  0.00000000  1
  Gd  Gd1  1  0.50000000  0.50000000  0.50000000  1
  Nd  Nd2  1  0.75000000  0.75000000  0.75000000  1
  Th  Th3  1  0.25000000  0.25000000  0.25000000  1
