# generated using pymatgen
data_Ho2FeSbO6
_symmetry_space_group_name_H-M   'P 1'
_cell_length_a   5.65626222
_cell_length_b   5.68104953
_cell_length_c   5.87324288
_cell_angle_alpha   61.02674165
_cell_angle_beta   61.99168515
_cell_angle_gamma   59.57749426
_symmetry_Int_Tables_number   1
_chemical_formula_structural   Ho2FeSbO6
_chemical_formula_sum   'Ho2 Fe1 Sb1 O6'
_cell_volume   135.93547274
_cell_formula_units_Z   1
loop_
 _symmetry_equiv_pos_site_id
 _symmetry_equiv_pos_as_xyz
  1  'x, y, z'
loop_
 _atom_site_type_symbol
 _atom_site_label
 _atom_site_symmetry_multiplicity
 _atom_site_fract_x
 _atom_site_fract_y
 _atom_site_fract_z
 _atom_site_occupancy
  Ho  Ho0  1  0.53062182  0.52726840  0.41864772  1
  Ho  Ho1  1  0.02849549  0.02699223  0.91884898  1
  Fe  Fe2  1  0.81105843  0.80886062  0.56787244  1
  Sb  Sb3  1  0.31342278  0.31302706  0.06066828  1
  O  O4  1  0.61356539  0.19162949  0.26245633  1
  O  O5  1  0.20228308  0.93992896  0.25181823  1
  O  O6  1  0.93699449  0.60811218  0.25175161  1
  O  O7  1  0.42835090  0.69138786  0.76302261  1
  O  O8  1  0.68839386  0.11653462  0.76406548  1
  O  O9  1  0.10841078  0.43785957  0.75604931  1
