# generated using pymatgen
data_Ce2Th(GaAu)2
_symmetry_space_group_name_H-M   'P 1'
_cell_length_a   4.47379607
_cell_length_b   4.47379607
_cell_length_c   9.57661260
_cell_angle_alpha   76.49211049
_cell_angle_beta   76.49211047
_cell_angle_gamma   59.99999996
_symmetry_Int_Tables_number   1
_chemical_formula_structural   Ce2Th(GaAu)2
_chemical_formula_sum   'Ce2 Th1 Ga2 Au2'
_cell_volume   159.84326749
_cell_formula_units_Z   1
loop_
 _symmetry_equiv_pos_site_id
 _symmetry_equiv_pos_as_xyz
  1  'x, y, z'
loop_
 _atom_site_type_symbol
 _atom_site_label
 _atom_site_symmetry_multiplicity
 _atom_site_fract_x
 _atom_site_fract_y
 _atom_site_fract_z
 _atom_site_occupancy
  Ce  Ce0  1  0.14061898  0.14061898  0.57814406  1
  Ce  Ce1  1  0.85938102  0.85938102  0.42185594  1
  Th  Th2  1  0.00000000  0.00000000  0.00000000  1
  Ga  Ga3  1  0.74221775  0.74221775  0.77334774  1
  Ga  Ga4  1  0.25778225  0.25778225  0.22665226  1
  Au  Au5  1  0.59710510  0.59710510  0.20868470  1
  Au  Au6  1  0.40289490  0.40289490  0.79131530  1
