# generated using pymatgen
data_ZrAlCu2
_symmetry_space_group_name_H-M   'P 1'
_cell_length_a   4.46114959
_cell_length_b   4.46133034
_cell_length_c   4.42147151
_cell_angle_alpha   120.08041105
_cell_angle_beta   120.07920167
_cell_angle_gamma   90.38380010
_symmetry_Int_Tables_number   1
_chemical_formula_structural   ZrAlCu2
_chemical_formula_sum   'Zr1 Al1 Cu2'
_cell_volume   61.86121947
_cell_formula_units_Z   1
loop_
 _symmetry_equiv_pos_site_id
 _symmetry_equiv_pos_as_xyz
  1  'x, y, z'
loop_
 _atom_site_type_symbol
 _atom_site_label
 _atom_site_symmetry_multiplicity
 _atom_site_fract_x
 _atom_site_fract_y
 _atom_site_fract_z
 _atom_site_occupancy
  Zr  Zr0  1  0.49994561  0.50007150  0.00001772  1
  Cu  Cu1  1  0.99989418  0.00009855  0.99999204  1
  Cu  Cu2  1  0.25013351  0.74987990  0.50001306  1
  Al  Al3  1  0.75002670  0.24995005  0.49997717  1
