# generated using pymatgen
data_Ac2PtAu
_symmetry_space_group_name_H-M   'P 1'
_cell_length_a   4.45530486
_cell_length_b   4.45530486
_cell_length_c   7.83908578
_cell_angle_alpha   73.49061003
_cell_angle_beta   73.49061003
_cell_angle_gamma   60.00000000
_symmetry_Int_Tables_number   1
_chemical_formula_structural   Ac2PtAu
_chemical_formula_sum   'Ac2 Pt1 Au1'
_cell_volume   127.29553268
_cell_formula_units_Z   1
loop_
 _symmetry_equiv_pos_site_id
 _symmetry_equiv_pos_as_xyz
  1  'x, y, z'
loop_
 _atom_site_type_symbol
 _atom_site_label
 _atom_site_symmetry_multiplicity
 _atom_site_fract_x
 _atom_site_fract_y
 _atom_site_fract_z
 _atom_site_occupancy
  Ac  Ac0  1  0.75604174  0.75604174  0.73187477  1
  Ac  Ac1  1  0.24395826  0.24395826  0.26812523  1
  Au  Au2  1  0.00000000  0.00000000  0.00000000  1
  Pt  Pt3  1  0.50000000  0.50000000  0.50000000  1
