# generated using pymatgen
data_Na3Tm2ThSe6
_symmetry_space_group_name_H-M   'P 1'
_cell_length_a   7.13765772
_cell_length_b   7.13765772
_cell_length_c   7.45271504
_cell_angle_alpha   99.19518175
_cell_angle_beta   99.19518182
_cell_angle_gamma   120.01886598
_symmetry_Int_Tables_number   1
_chemical_formula_structural   Na3Tm2ThSe6
_chemical_formula_sum   'Na3 Tm2 Th1 Se6'
_cell_volume   311.50409781
_cell_formula_units_Z   1
loop_
 _symmetry_equiv_pos_site_id
 _symmetry_equiv_pos_as_xyz
  1  'x, y, z'
loop_
 _atom_site_type_symbol
 _atom_site_label
 _atom_site_symmetry_multiplicity
 _atom_site_fract_x
 _atom_site_fract_y
 _atom_site_fract_z
 _atom_site_occupancy
  Na  Na0  1  0.16551831  0.83448169  0.50000000  1
  Na  Na1  1  0.83448169  0.16551831  0.50000000  1
  Na  Na2  1  0.50000000  0.50000000  0.50000000  1
  Tm  Tm3  1  0.33323631  0.66676369  0.00000000  1
  Tm  Tm4  1  0.66676369  0.33323631  0.00000000  1
  Th  Th5  1  0.00000000  0.00000000  0.00000000  1
  Se  Se6  1  0.92247574  0.58141940  0.76751841  1
  Se  Se7  1  0.73665348  0.73665348  0.23291219  1
  Se  Se8  1  0.07752426  0.41858060  0.23248159  1
  Se  Se9  1  0.58141940  0.92247574  0.76751841  1
  Se  Se10  1  0.26334652  0.26334652  0.76708781  1
  Se  Se11  1  0.41858060  0.07752426  0.23248159  1
