# generated using pymatgen
data_LaPr6YHo2
_symmetry_space_group_name_H-M   'P 1'
_cell_length_a   9.85729193
_cell_length_b   9.04137072
_cell_length_c   9.04137072
_cell_angle_alpha   117.83599339
_cell_angle_beta   94.21450955
_cell_angle_gamma   94.21450951
_symmetry_Int_Tables_number   1
_chemical_formula_structural   LaPr6YHo2
_chemical_formula_sum   'La2 Pr12 Y2 Ho4'
_cell_volume   705.30081844
_cell_formula_units_Z   2
loop_
 _symmetry_equiv_pos_site_id
 _symmetry_equiv_pos_as_xyz
  1  'x, y, z'
loop_
 _atom_site_type_symbol
 _atom_site_label
 _atom_site_symmetry_multiplicity
 _atom_site_fract_x
 _atom_site_fract_y
 _atom_site_fract_z
 _atom_site_occupancy
  La  La0  1  0.25000000  0.40614411  0.59385589  1
  La  La1  1  0.75000000  0.59385589  0.40614411  1
  Pr  Pr2  1  0.05433153  0.11120294  0.76057649  1
  Pr  Pr3  1  0.44566847  0.23942351  0.88879706  1
  Pr  Pr4  1  0.94566847  0.88879706  0.23942351  1
  Pr  Pr5  1  0.55433153  0.76057649  0.11120294  1
  Pr  Pr6  1  0.31682364  0.98197372  0.43416374  1
  Pr  Pr7  1  0.18317636  0.56583626  0.01802628  1
  Pr  Pr8  1  0.68317636  0.01802628  0.56583626  1
  Pr  Pr9  1  0.81682364  0.43416374  0.98197372  1
  Pr  Pr10  1  0.12066095  0.70503080  0.49294852  1
  Pr  Pr11  1  0.37933905  0.50705148  0.29496920  1
  Pr  Pr12  1  0.87933905  0.29496920  0.50705148  1
  Pr  Pr13  1  0.62066095  0.49294852  0.70503080  1
  Y  Y14  1  0.25000000  0.97043720  0.02956280  1
  Y  Y15  1  0.75000000  0.02956280  0.97043720  1
  Ho  Ho16  1  0.45418396  0.80584519  0.70842302  1
  Ho  Ho17  1  0.04581604  0.29157698  0.19415481  1
  Ho  Ho18  1  0.54581604  0.19415481  0.29157698  1
  Ho  Ho19  1  0.95418396  0.70842302  0.80584519  1
