# generated using pymatgen
data_Tl2In4GaPb
_symmetry_space_group_name_H-M   'P 1'
_cell_length_a   5.49178853
_cell_length_b   5.33285536
_cell_length_c   9.29442468
_cell_angle_alpha   55.07875499
_cell_angle_beta   89.99954697
_cell_angle_gamma   89.99957919
_symmetry_Int_Tables_number   1
_chemical_formula_structural   Tl2In4GaPb
_chemical_formula_sum   'Tl2 In4 Ga1 Pb1'
_cell_volume   223.19169060
_cell_formula_units_Z   1
loop_
 _symmetry_equiv_pos_site_id
 _symmetry_equiv_pos_as_xyz
  1  'x, y, z'
loop_
 _atom_site_type_symbol
 _atom_site_label
 _atom_site_symmetry_multiplicity
 _atom_site_fract_x
 _atom_site_fract_y
 _atom_site_fract_z
 _atom_site_occupancy
  Tl  Tl0  1  0.00000000  0.00000100  0.99999900  1
  Tl  Tl1  1  0.50000000  0.00000100  0.49999900  1
  In  In2  1  0.00000299  0.73638053  0.76496843  1
  In  In3  1  0.99999601  0.26362097  0.23503007  1
  In  In4  1  0.50000201  0.76653535  0.23415551  1
  In  In5  1  0.49999699  0.23346565  0.76584349  1
  Ga  Ga6  1  0.49999900  0.50000150  0.99999950  1
  Pb  Pb7  1  0.00000050  0.49999400  0.50000450  1
