# generated using pymatgen
data_CrIn2As
_symmetry_space_group_name_H-M   'P 1'
_cell_length_a   3.74272156
_cell_length_b   4.25346810
_cell_length_c   5.82481326
_cell_angle_alpha   68.88795498
_cell_angle_beta   90.00000000
_cell_angle_gamma   90.00000000
_symmetry_Int_Tables_number   1
_chemical_formula_structural   CrIn2As
_chemical_formula_sum   'Cr1 In2 As1'
_cell_volume   86.50425675
_cell_formula_units_Z   1
loop_
 _symmetry_equiv_pos_site_id
 _symmetry_equiv_pos_as_xyz
  1  'x, y, z'
loop_
 _atom_site_type_symbol
 _atom_site_label
 _atom_site_symmetry_multiplicity
 _atom_site_fract_x
 _atom_site_fract_y
 _atom_site_fract_z
 _atom_site_occupancy
  As  As0  1  0.00000000  0.69754796  0.48147936  1
  Cr  Cr1  1  0.50000000  0.54654569  0.77861952  1
  In  In2  1  0.00000000  0.97284205  0.93016211  1
  In  In3  1  0.50000000  0.28306429  0.30973900  1
