# generated using pymatgen
data_LiPm(SnPd2)2
_symmetry_space_group_name_H-M   'P 1'
_cell_length_a   4.56784554
_cell_length_b   4.56784553
_cell_length_c   8.70304546
_cell_angle_alpha   74.78582038
_cell_angle_beta   74.78582039
_cell_angle_gamma   59.99999995
_symmetry_Int_Tables_number   1
_chemical_formula_structural   LiPm(SnPd2)2
_chemical_formula_sum   'Li1 Pm1 Sn2 Pd4'
_cell_volume   149.86822691
_cell_formula_units_Z   1
loop_
 _symmetry_equiv_pos_site_id
 _symmetry_equiv_pos_as_xyz
  1  'x, y, z'
loop_
 _atom_site_type_symbol
 _atom_site_label
 _atom_site_symmetry_multiplicity
 _atom_site_fract_x
 _atom_site_fract_y
 _atom_site_fract_z
 _atom_site_occupancy
  Li  Li0  1  0.50000000  0.50000000  0.50000000  1
  Pm  Pm1  1  0.00000000  0.00000000  0.00000000  1
  Sn  Sn2  1  0.75916726  0.75916726  0.72249823  1
  Sn  Sn3  1  0.24083274  0.24083274  0.27750177  1
  Pd  Pd4  1  0.39797047  0.39797047  0.80608858  1
  Pd  Pd5  1  0.87059806  0.87059806  0.38820581  1
  Pd  Pd6  1  0.12940194  0.12940194  0.61179419  1
  Pd  Pd7  1  0.60202953  0.60202953  0.19391142  1
