# generated using pymatgen
data_PuTlSb2
_symmetry_space_group_name_H-M   'P 1'
_cell_length_a   4.78268418
_cell_length_b   4.78268418
_cell_length_c   7.05385745
_cell_angle_alpha   70.18331080
_cell_angle_beta   70.18331080
_cell_angle_gamma   60.00000001
_symmetry_Int_Tables_number   1
_chemical_formula_structural   PuTlSb2
_chemical_formula_sum   'Pu1 Tl1 Sb2'
_cell_volume   128.58229949
_cell_formula_units_Z   1
loop_
 _symmetry_equiv_pos_site_id
 _symmetry_equiv_pos_as_xyz
  1  'x, y, z'
loop_
 _atom_site_type_symbol
 _atom_site_label
 _atom_site_symmetry_multiplicity
 _atom_site_fract_x
 _atom_site_fract_y
 _atom_site_fract_z
 _atom_site_occupancy
  Pu  Pu0  1  0.66750297  0.66750297  0.99749010  1
  Tl  Tl1  1  0.49487580  0.49487580  0.51537261  1
  Sb  Sb2  1  0.07656885  0.07656885  0.77029346  1
  Sb  Sb3  1  0.26105239  0.26105239  0.21684284  1
