# generated using pymatgen
data_CsRb(TeAu)2
_symmetry_space_group_name_H-M   'P 1'
_cell_length_a   4.79114996
_cell_length_b   4.79114996
_cell_length_c   11.05033174
_cell_angle_alpha   90.00000000
_cell_angle_beta   90.00000000
_cell_angle_gamma   119.99999999
_symmetry_Int_Tables_number   1
_chemical_formula_structural   CsRb(TeAu)2
_chemical_formula_sum   'Cs1 Rb1 Te2 Au2'
_cell_volume   219.67744883
_cell_formula_units_Z   1
loop_
 _symmetry_equiv_pos_site_id
 _symmetry_equiv_pos_as_xyz
  1  'x, y, z'
loop_
 _atom_site_type_symbol
 _atom_site_label
 _atom_site_symmetry_multiplicity
 _atom_site_fract_x
 _atom_site_fract_y
 _atom_site_fract_z
 _atom_site_occupancy
  Cs  Cs0  1  0.00000000  0.00000000  0.00000000  1
  Rb  Rb1  1  0.00000000  0.00000000  0.50000000  1
  Te  Te2  1  0.66666667  0.33333333  0.74102243  1
  Te  Te3  1  0.33333333  0.66666667  0.25897757  1
  Au  Au4  1  0.66666667  0.33333333  0.25985057  1
  Au  Au5  1  0.33333333  0.66666667  0.74014943  1
