# generated using pymatgen
data_Bi6Pd
_symmetry_space_group_name_H-M   'P 1'
_cell_length_a   9.12377024
_cell_length_b   9.12377151
_cell_length_c   15.00000000
_cell_angle_alpha   90.00000000
_cell_angle_beta   90.00000000
_cell_angle_gamma   120.00000229
_symmetry_Int_Tables_number   1
_chemical_formula_structural   Bi6Pd
_chemical_formula_sum   'Bi6 Pd1'
_cell_volume   1081.36079771
_cell_formula_units_Z   1
loop_
 _symmetry_equiv_pos_site_id
 _symmetry_equiv_pos_as_xyz
  1  'x, y, z'
loop_
 _atom_site_type_symbol
 _atom_site_label
 _atom_site_symmetry_multiplicity
 _atom_site_fract_x
 _atom_site_fract_y
 _atom_site_fract_z
 _atom_site_occupancy
  Bi  Bi0  1  0.63005491  0.81502745  0.50000000  1
  Bi  Bi1  1  0.18497255  0.81502745  0.50000000  1
  Bi  Bi2  1  0.18497255  0.36994509  0.50000000  1
  Bi  Bi3  1  0.81502746  0.63005492  0.50000000  1
  Bi  Bi4  1  0.81502745  0.18497256  0.50000000  1
  Bi  Bi5  1  0.36994510  0.18497255  0.50000000  1
  Pd  Pd6  1  0.00000000  0.00000000  0.50000000  1
