# generated using pymatgen
data_Mg2FeCoO4
_symmetry_space_group_name_H-M   'P 1'
_cell_length_a   3.05665337
_cell_length_b   5.22652534
_cell_length_c   5.24470040
_cell_angle_alpha   108.47909465
_cell_angle_beta   90.00000000
_cell_angle_gamma   90.00000000
_symmetry_Int_Tables_number   1
_chemical_formula_structural   Mg2FeCoO4
_chemical_formula_sum   'Mg2 Fe1 Co1 O4'
_cell_volume   79.46749223
_cell_formula_units_Z   1
loop_
 _symmetry_equiv_pos_site_id
 _symmetry_equiv_pos_as_xyz
  1  'x, y, z'
loop_
 _atom_site_type_symbol
 _atom_site_label
 _atom_site_symmetry_multiplicity
 _atom_site_fract_x
 _atom_site_fract_y
 _atom_site_fract_z
 _atom_site_occupancy
  Mg  Mg0  1  0.50000000  0.00000000  0.50000000  1
  Mg  Mg1  1  0.00000000  0.50000000  0.50000000  1
  Fe  Fe2  1  0.50000000  0.50000000  0.00000000  1
  Co  Co3  1  0.00000000  0.00000000  0.00000000  1
  O  O4  1  0.50000000  0.25520865  0.25439253  1
  O  O5  1  0.50000000  0.74479135  0.74560747  1
  O  O6  1  0.00000000  0.24081238  0.73567650  1
  O  O7  1  0.00000000  0.75918762  0.26432350  1
