# generated using pymatgen
data_NdDySeN
_symmetry_space_group_name_H-M   'P 1'
_cell_length_a   3.73999807
_cell_length_b   3.73999807
_cell_length_c   7.02237642
_cell_angle_alpha   74.55629288
_cell_angle_beta   74.55629288
_cell_angle_gamma   60.00000008
_symmetry_Int_Tables_number   1
_chemical_formula_structural   NdDySeN
_chemical_formula_sum   'Nd1 Dy1 Se1 N1'
_cell_volume   80.94502476
_cell_formula_units_Z   1
loop_
 _symmetry_equiv_pos_site_id
 _symmetry_equiv_pos_as_xyz
  1  'x, y, z'
loop_
 _atom_site_type_symbol
 _atom_site_label
 _atom_site_symmetry_multiplicity
 _atom_site_fract_x
 _atom_site_fract_y
 _atom_site_fract_z
 _atom_site_occupancy
  Nd  Nd0  1  0.98423145  0.98423145  0.04730566  1
  Dy  Dy1  1  0.51724839  0.51724839  0.44825484  1
  Se  Se2  1  0.75427074  0.75427074  0.73718777  1
  N  N3  1  0.24424942  0.24424942  0.26725173  1
