# generated using pymatgen
data_Pm4TlAuO
_symmetry_space_group_name_H-M   'P 1'
_cell_length_a   6.85157886
_cell_length_b   6.87768773
_cell_length_c   8.57708086
_cell_angle_alpha   90.00000000
_cell_angle_beta   113.54142789
_cell_angle_gamma   90.00000000
_symmetry_Int_Tables_number   1
_chemical_formula_structural   Pm4TlAuO
_chemical_formula_sum   'Pm8 Tl2 Au2 O2'
_cell_volume   370.53883430
_cell_formula_units_Z   2
loop_
 _symmetry_equiv_pos_site_id
 _symmetry_equiv_pos_as_xyz
  1  'x, y, z'
loop_
 _atom_site_type_symbol
 _atom_site_label
 _atom_site_symmetry_multiplicity
 _atom_site_fract_x
 _atom_site_fract_y
 _atom_site_fract_z
 _atom_site_occupancy
  Pm  Pm0  1  0.92003784  0.25000000  0.84007568  1
  Pm  Pm1  1  0.43909446  0.75000000  0.87818892  1
  Pm  Pm2  1  0.07996216  0.75000000  0.15992432  1
  Pm  Pm3  1  0.56090554  0.25000000  0.12181108  1
  Pm  Pm4  1  0.50000000  0.50000000  0.50000000  1
  Pm  Pm5  1  0.00000000  0.00000000  0.50000000  1
  Pm  Pm6  1  0.50000000  0.00000000  0.50000000  1
  Pm  Pm7  1  0.00000000  0.50000000  0.50000000  1
  Tl  Tl8  1  0.11497025  0.25000000  0.22994049  1
  Tl  Tl9  1  0.88502975  0.75000000  0.77005951  1
  Au  Au10  1  0.62185628  0.75000000  0.24371257  1
  Au  Au11  1  0.37814372  0.25000000  0.75628743  1
  O  O12  1  0.24167891  0.75000000  0.48335782  1
  O  O13  1  0.75832109  0.25000000  0.51664218  1
