# generated using pymatgen
data_CsSmBeS3
_symmetry_space_group_name_H-M   'P 1'
_cell_length_a   3.98016227
_cell_length_b   9.67209286
_cell_length_c   9.53770019
_cell_angle_alpha   111.34601860
_cell_angle_beta   90.00000000
_cell_angle_gamma   90.00000000
_symmetry_Int_Tables_number   1
_chemical_formula_structural   CsSmBeS3
_chemical_formula_sum   'Cs2 Sm2 Be2 S6'
_cell_volume   341.98003329
_cell_formula_units_Z   2
loop_
 _symmetry_equiv_pos_site_id
 _symmetry_equiv_pos_as_xyz
  1  'x, y, z'
loop_
 _atom_site_type_symbol
 _atom_site_label
 _atom_site_symmetry_multiplicity
 _atom_site_fract_x
 _atom_site_fract_y
 _atom_site_fract_z
 _atom_site_occupancy
  Cs  Cs0  1  0.25000000  0.20617095  0.23981085  1
  Cs  Cs1  1  0.75000000  0.79382905  0.76018915  1
  Sm  Sm2  1  0.25000000  0.66725777  0.15091462  1
  Sm  Sm3  1  0.75000000  0.33274223  0.84908538  1
  Be  Be4  1  0.25000000  0.07290931  0.60584787  1
  Be  Be5  1  0.75000000  0.92709069  0.39415213  1
  S  S6  1  0.75000000  0.87571774  0.16472469  1
  S  S7  1  0.25000000  0.12428226  0.83527531  1
  S  S8  1  0.25000000  0.84763100  0.46632414  1
  S  S9  1  0.75000000  0.15236900  0.53367586  1
  S  S10  1  0.75000000  0.46967120  0.15972500  1
  S  S11  1  0.25000000  0.53032880  0.84027500  1
