# generated using pymatgen
data_TiMnSi
_symmetry_space_group_name_H-M   'P 1'
_cell_length_a   4.71283104
_cell_length_b   4.90635534
_cell_length_c   6.71071193
_cell_angle_alpha   90.00000000
_cell_angle_beta   90.00000000
_cell_angle_gamma   90.00000000
_symmetry_Int_Tables_number   1
_chemical_formula_structural   TiMnSi
_chemical_formula_sum   'Ti4 Mn4 Si4'
_cell_volume   155.17060912
_cell_formula_units_Z   4
loop_
 _symmetry_equiv_pos_site_id
 _symmetry_equiv_pos_as_xyz
  1  'x, y, z'
loop_
 _atom_site_type_symbol
 _atom_site_label
 _atom_site_symmetry_multiplicity
 _atom_site_fract_x
 _atom_site_fract_y
 _atom_site_fract_z
 _atom_site_occupancy
  Si  Si0  1  0.00000000  0.00000000  0.00000000  1
  Si  Si1  1  0.00000000  0.50000000  0.00000000  1
  Si  Si2  1  0.50000000  0.50000000  0.50000000  1
  Si  Si3  1  0.50000000  0.00000000  0.50000000  1
  Mn  Mn4  1  0.25000000  0.25000000  0.75000000  1
  Mn  Mn5  1  0.25000000  0.75000000  0.25000000  1
  Mn  Mn6  1  0.75000000  0.75000000  0.25000000  1
  Mn  Mn7  1  0.75000000  0.25000000  0.75000000  1
  Ti  Ti8  1  0.00000000  0.25000000  0.37831246  1
  Ti  Ti9  1  0.00000000  0.75000000  0.62168754  1
  Ti  Ti10  1  0.50000000  0.75000000  0.87831246  1
  Ti  Ti11  1  0.50000000  0.25000000  0.12168754  1
