# generated using pymatgen
data_Pu2UNb
_symmetry_space_group_name_H-M   'P 1'
_cell_length_a   2.94001337
_cell_length_b   2.94001338
_cell_length_c   11.62192434
_cell_angle_alpha   82.73344152
_cell_angle_beta   82.73344154
_cell_angle_gamma   59.99999996
_symmetry_Int_Tables_number   1
_chemical_formula_structural   Pu2UNb
_chemical_formula_sum   'Pu2 U1 Nb1'
_cell_volume   86.06470681
_cell_formula_units_Z   1
loop_
 _symmetry_equiv_pos_site_id
 _symmetry_equiv_pos_as_xyz
  1  'x, y, z'
loop_
 _atom_site_type_symbol
 _atom_site_label
 _atom_site_symmetry_multiplicity
 _atom_site_fract_x
 _atom_site_fract_y
 _atom_site_fract_z
 _atom_site_occupancy
  Nb  Nb0  1  0.00000000  0.00000000  0.00000000  1
  U  U1  1  0.50000000  0.50000000  0.50000000  1
  Pu  Pu2  1  0.08292912  0.08292912  0.75121364  1
  Pu  Pu3  1  0.91707088  0.91707088  0.24878636  1
