# generated using pymatgen
data_Zr3Ge5Se12
_symmetry_space_group_name_H-M   'P 1'
_cell_length_a   13.72993422
_cell_length_b   13.72993423
_cell_length_c   13.72993422
_cell_angle_alpha   109.47122063
_cell_angle_beta   109.47122063
_cell_angle_gamma   109.47122062
_symmetry_Int_Tables_number   1
_chemical_formula_structural   Zr3Ge5Se12
_chemical_formula_sum   'Zr12 Ge20 Se48'
_cell_volume   1992.43186696
_cell_formula_units_Z   4
loop_
 _symmetry_equiv_pos_site_id
 _symmetry_equiv_pos_as_xyz
  1  'x, y, z'
loop_
 _atom_site_type_symbol
 _atom_site_label
 _atom_site_symmetry_multiplicity
 _atom_site_fract_x
 _atom_site_fract_y
 _atom_site_fract_z
 _atom_site_occupancy
  Zr  Zr0  1  0.75000000  0.37500000  0.12500000  1
  Zr  Zr1  1  0.87500000  0.75000000  0.12500000  1
  Zr  Zr2  1  0.37500000  0.75000000  0.62500000  1
  Zr  Zr3  1  0.25000000  0.12500000  0.37500000  1
  Zr  Zr4  1  0.87500000  0.12500000  0.25000000  1
  Zr  Zr5  1  0.37500000  0.62500000  0.25000000  1
  Zr  Zr6  1  0.62500000  0.37500000  0.75000000  1
  Zr  Zr7  1  0.12500000  0.87500000  0.75000000  1
  Zr  Zr8  1  0.75000000  0.87500000  0.62500000  1
  Zr  Zr9  1  0.62500000  0.25000000  0.37500000  1
  Zr  Zr10  1  0.12500000  0.25000000  0.87500000  1
  Zr  Zr11  1  0.25000000  0.62500000  0.87500000  1
  Ge  Ge12  1  0.12500000  0.37500000  0.25000000  1
  Ge  Ge13  1  0.00000000  0.50000000  0.00000000  1
  Ge  Ge14  1  0.00000000  0.00000000  0.00000000  1
  Ge  Ge15  1  0.37500000  0.25000000  0.12500000  1
  Ge  Ge16  1  0.50000000  0.00000000  0.50000000  1
  Ge  Ge17  1  0.50000000  0.50000000  0.00000000  1
  Ge  Ge18  1  0.12500000  0.75000000  0.37500000  1
  Ge  Ge19  1  0.75000000  0.12500000  0.87500000  1
  Ge  Ge20  1  0.75000000  0.62500000  0.37500000  1
  Ge  Ge21  1  0.37500000  0.12500000  0.75000000  1
  Ge  Ge22  1  0.62500000  0.87500000  0.25000000  1
  Ge  Ge23  1  0.50000000  0.50000000  0.50000000  1
  Ge  Ge24  1  0.50000000  0.00000000  0.00000000  1
  Ge  Ge25  1  -0.00000000  0.00000000  0.50000000  1
  Ge  Ge26  1  0.25000000  0.37500000  0.62500000  1
  Ge  Ge27  1  0.25000000  0.87500000  0.12500000  1
  Ge  Ge28  1  0.00000000  0.50000000  0.50000000  1
  Ge  Ge29  1  0.87500000  0.25000000  0.62500000  1
  Ge  Ge30  1  0.62500000  0.75000000  0.87500000  1
  Ge  Ge31  1  0.87500000  0.62500000  0.75000000  1
  Se  Se32  1  0.72277056  0.13824653  0.05034848  1
  Se  Se33  1  0.32757792  0.55034848  0.41210196  1
  Se  Se34  1  0.94965152  0.36175347  0.27722944  1
  Se  Se35  1  0.55034848  0.22277056  0.13824653  1
  Se  Se36  1  0.58452403  0.72277056  0.67242208  1
  Se  Se37  1  0.94965152  0.58789804  0.17242208  1
  Se  Se38  1  0.32757792  0.77722944  0.41547597  1
  Se  Se39  1  0.08789804  0.91547597  0.13824653  1
  Se  Se40  1  0.58789804  0.94965152  0.67242208  1
  Se  Se41  1  0.72277056  0.58452403  0.17242208  1
  Se  Se42  1  0.77722944  0.44965152  0.36175347  1
  Se  Se43  1  0.82757792  0.91210196  0.05034848  1
  Se  Se44  1  0.13824653  0.72277056  0.55034848  1
  Se  Se45  1  0.36175347  0.41210196  0.08452403  1
  Se  Se46  1  0.08452403  0.91210196  0.36175347  1
  Se  Se47  1  0.41547597  0.13824653  0.58789804  1
  Se  Se48  1  0.08452403  0.17242208  0.22277056  1
  Se  Se49  1  0.44965152  0.67242208  0.08789804  1
  Se  Se50  1  0.82757792  0.91547597  0.27722944  1
  Se  Se51  1  0.13824653  0.41547597  0.08789804  1
  Se  Se52  1  0.36175347  0.94965152  0.77722944  1
  Se  Se53  1  0.58789804  0.63824653  0.41547597  1
  Se  Se54  1  0.91210196  0.82757792  0.55034848  1
  Se  Se55  1  0.77722944  0.32757792  0.91547597  1
  Se  Se56  1  0.41210196  0.36175347  0.58452403  1
  Se  Se57  1  0.08789804  0.17242208  0.44965152  1
  Se  Se58  1  0.22277056  0.67242208  0.08452403  1
  Se  Se59  1  0.17242208  0.08452403  0.72277056  1
  Se  Se60  1  0.63824653  0.05034848  0.22277056  1
  Se  Se61  1  0.86175347  0.58452403  0.91210196  1
  Se  Se62  1  0.55034848  0.32757792  0.91210196  1
  Se  Se63  1  0.58452403  0.86175347  0.41210196  1
  Se  Se64  1  0.91547597  0.82757792  0.77722944  1
  Se  Se65  1  0.91547597  0.08789804  0.63824653  1
  Se  Se66  1  0.86175347  0.27722944  0.44965152  1
  Se  Se67  1  0.17242208  0.08789804  0.94965152  1
  Se  Se68  1  0.63824653  0.58789804  0.91547597  1
  Se  Se69  1  0.41210196  0.05034848  0.32757792  1
  Se  Se70  1  0.27722944  0.41547597  0.82757792  1
  Se  Se71  1  0.22277056  0.55034848  0.63824653  1
  Se  Se72  1  0.91210196  0.08452403  0.86175347  1
  Se  Se73  1  0.67242208  0.22277056  0.58452403  1
  Se  Se74  1  0.44965152  0.77722944  0.86175347  1
  Se  Se75  1  0.05034848  0.41210196  0.82757792  1
  Se  Se76  1  0.41547597  0.27722944  0.32757792  1
  Se  Se77  1  0.05034848  0.63824653  0.72277056  1
  Se  Se78  1  0.67242208  0.44965152  0.58789804  1
  Se  Se79  1  0.27722944  0.86175347  0.94965152  1
