# generated using pymatgen
data_Nd2Al2SnPd5
_symmetry_space_group_name_H-M   'P 1'
_cell_length_a   3.57421443
_cell_length_b   10.40489919
_cell_length_c   10.40489919
_cell_angle_alpha   90.00000000
_cell_angle_beta   90.00000000
_cell_angle_gamma   90.00000000
_symmetry_Int_Tables_number   1
_chemical_formula_structural   Nd2Al2SnPd5
_chemical_formula_sum   'Nd4 Al4 Sn2 Pd10'
_cell_volume   386.95134225
_cell_formula_units_Z   2
loop_
 _symmetry_equiv_pos_site_id
 _symmetry_equiv_pos_as_xyz
  1  'x, y, z'
loop_
 _atom_site_type_symbol
 _atom_site_label
 _atom_site_symmetry_multiplicity
 _atom_site_fract_x
 _atom_site_fract_y
 _atom_site_fract_z
 _atom_site_occupancy
  Nd  Nd0  1  0.00000000  0.68127412  0.18127412  1
  Nd  Nd1  1  0.00000000  0.31872588  0.81872588  1
  Nd  Nd2  1  0.00000000  0.18127412  0.31872588  1
  Nd  Nd3  1  0.00000000  0.81872588  0.68127412  1
  Al  Al4  1  0.00000000  0.11737340  0.61737340  1
  Al  Al5  1  0.00000000  0.88262660  0.38262660  1
  Al  Al6  1  0.00000000  0.61737340  0.88262660  1
  Al  Al7  1  0.00000000  0.38262660  0.11737340  1
  Sn  Sn8  1  0.00000000  0.00000000  0.00000000  1
  Sn  Sn9  1  0.00000000  0.50000000  0.50000000  1
  Pd  Pd10  1  0.50000000  0.21388008  0.05287129  1
  Pd  Pd11  1  0.50000000  0.78611992  0.94712871  1
  Pd  Pd12  1  0.50000000  0.05287129  0.78611992  1
  Pd  Pd13  1  0.50000000  0.71388008  0.44712871  1
  Pd  Pd14  1  0.50000000  0.94712871  0.21388008  1
  Pd  Pd15  1  0.50000000  0.28611992  0.55287129  1
  Pd  Pd16  1  0.50000000  0.55287129  0.71388008  1
  Pd  Pd17  1  0.50000000  0.44712871  0.28611992  1
  Pd  Pd18  1  0.50000000  0.50000000  0.00000000  1
  Pd  Pd19  1  0.50000000  0.00000000  0.50000000  1
