# generated using pymatgen
data_Cu4Ag5
_symmetry_space_group_name_H-M   'P 1'
_cell_length_a   7.76509742
_cell_length_b   7.76509742
_cell_length_c   5.37905476
_cell_angle_alpha   90.00000000
_cell_angle_beta   90.00000000
_cell_angle_gamma   60.00000001
_symmetry_Int_Tables_number   1
_chemical_formula_structural   Cu4Ag5
_chemical_formula_sum   'Cu8 Ag10'
_cell_volume   280.88620775
_cell_formula_units_Z   2
loop_
 _symmetry_equiv_pos_site_id
 _symmetry_equiv_pos_as_xyz
  1  'x, y, z'
loop_
 _atom_site_type_symbol
 _atom_site_label
 _atom_site_symmetry_multiplicity
 _atom_site_fract_x
 _atom_site_fract_y
 _atom_site_fract_z
 _atom_site_occupancy
  Cu  Cu0  1  0.00000000  0.00000000  0.00000000  1
  Cu  Cu1  1  0.00000000  0.00000000  0.50000000  1
  Cu  Cu2  1  0.65261685  0.34738315  0.25000000  1
  Cu  Cu3  1  -0.00000000  0.65261685  0.25000000  1
  Cu  Cu4  1  0.34738315  0.00000000  0.25000000  1
  Cu  Cu5  1  0.34738315  0.65261685  0.75000000  1
  Cu  Cu6  1  -0.00000000  0.34738315  0.75000000  1
  Cu  Cu7  1  0.65261685  0.00000000  0.75000000  1
  Ag  Ag8  1  0.31295511  0.68704489  0.25000000  1
  Ag  Ag9  1  -0.00000000  0.31295511  0.25000000  1
  Ag  Ag10  1  0.68704489  0.00000000  0.25000000  1
  Ag  Ag11  1  0.68704489  0.31295511  0.75000000  1
  Ag  Ag12  1  0.00000000  0.68704489  0.75000000  1
  Ag  Ag13  1  0.31295511  0.00000000  0.75000000  1
  Ag  Ag14  1  0.33333333  0.33333333  0.00000000  1
  Ag  Ag15  1  0.66666667  0.66666667  0.50000000  1
  Ag  Ag16  1  0.66666667  0.66666667  0.00000000  1
  Ag  Ag17  1  0.33333333  0.33333333  0.50000000  1
