# generated using pymatgen
data_Mg(ZrW)2
_symmetry_space_group_name_H-M   'P 1'
_cell_length_a   4.31564881
_cell_length_b   4.31564881
_cell_length_c   6.74071091
_cell_angle_alpha   71.32992532
_cell_angle_beta   71.32992532
_cell_angle_gamma   90.00000000
_symmetry_Int_Tables_number   1
_chemical_formula_structural   Mg(ZrW)2
_chemical_formula_sum   'Mg1 Zr2 W2'
_cell_volume   111.94243395
_cell_formula_units_Z   1
loop_
 _symmetry_equiv_pos_site_id
 _symmetry_equiv_pos_as_xyz
  1  'x, y, z'
loop_
 _atom_site_type_symbol
 _atom_site_label
 _atom_site_symmetry_multiplicity
 _atom_site_fract_x
 _atom_site_fract_y
 _atom_site_fract_z
 _atom_site_occupancy
  Mg  Mg0  1  0.00000000  0.00000000  0.00000000  1
  Zr  Zr1  1  0.75000000  0.25000000  0.50000000  1
  Zr  Zr2  1  0.25000000  0.75000000  0.50000000  1
  W  W3  1  0.40158553  0.40158553  0.19682895  1
  W  W4  1  0.59841447  0.59841447  0.80317105  1
