# generated using pymatgen
data_Ba3(TlSn)2
_symmetry_space_group_name_H-M   'P 1'
_cell_length_a   5.26276331
_cell_length_b   6.98179276
_cell_length_c   8.81164163
_cell_angle_alpha   109.96869005
_cell_angle_beta   90.00000000
_cell_angle_gamma   112.14129677
_symmetry_Int_Tables_number   1
_chemical_formula_structural   Ba3(TlSn)2
_chemical_formula_sum   'Ba3 Tl2 Sn2'
_cell_volume   278.76750224
_cell_formula_units_Z   1
loop_
 _symmetry_equiv_pos_site_id
 _symmetry_equiv_pos_as_xyz
  1  'x, y, z'
loop_
 _atom_site_type_symbol
 _atom_site_label
 _atom_site_symmetry_multiplicity
 _atom_site_fract_x
 _atom_site_fract_y
 _atom_site_fract_z
 _atom_site_occupancy
  Ba  Ba0  1  0.33128570  0.66257140  0.37259167  1
  Ba  Ba1  1  0.66871430  0.33742860  0.62740833  1
  Ba  Ba2  1  0.50000000  0.00000000  0.00000000  1
  Tl  Tl3  1  0.82386535  0.64772970  0.04115945  1
  Tl  Tl4  1  0.17613465  0.35227030  0.95884055  1
  Sn  Sn5  1  0.96788305  0.93576609  0.65490738  1
  Sn  Sn6  1  0.03211695  0.06423391  0.34509262  1
