# generated using pymatgen
data_LuP
_symmetry_space_group_name_H-M   'P 1'
_cell_length_a   17.04733816
_cell_length_b   17.04733816
_cell_length_c   5.52012992
_cell_angle_alpha   90.00000000
_cell_angle_beta   90.00000000
_cell_angle_gamma   120.00000001
_symmetry_Int_Tables_number   1
_chemical_formula_structural   LuP
_chemical_formula_sum   'Lu2 P2'
_cell_volume   1389.29055476
_cell_formula_units_Z   2
loop_
 _symmetry_equiv_pos_site_id
 _symmetry_equiv_pos_as_xyz
  1  'x, y, z'
loop_
 _atom_site_type_symbol
 _atom_site_label
 _atom_site_symmetry_multiplicity
 _atom_site_fract_x
 _atom_site_fract_y
 _atom_site_fract_z
 _atom_site_occupancy
  Lu  Lu0  1  0.63224339  0.60213149  0.25000000  1
  Lu  Lu1  1  0.36811915  0.39692566  0.75000000  1
  P  P2  1  0.49981873  0.50047142  0.99977267  1
  P  P3  1  0.49981873  0.50047142  0.50022733  1
