# generated using pymatgen
data_Rb2Mg(SiSe3)2
_symmetry_space_group_name_H-M   'P 1'
_cell_length_a   7.32768842
_cell_length_b   7.32768843
_cell_length_c   8.93028757
_cell_angle_alpha   65.77809668
_cell_angle_beta   65.77809666
_cell_angle_gamma   60.00000003
_symmetry_Int_Tables_number   1
_chemical_formula_structural   Rb2Mg(SiSe3)2
_chemical_formula_sum   'Rb2 Mg1 Si2 Se6'
_cell_volume   365.71302707
_cell_formula_units_Z   1
loop_
 _symmetry_equiv_pos_site_id
 _symmetry_equiv_pos_as_xyz
  1  'x, y, z'
loop_
 _atom_site_type_symbol
 _atom_site_label
 _atom_site_symmetry_multiplicity
 _atom_site_fract_x
 _atom_site_fract_y
 _atom_site_fract_z
 _atom_site_occupancy
  Rb  Rb0  1  0.77636980  0.77636980  0.67089061  1
  Rb  Rb1  1  0.22363020  0.22363020  0.32910939  1
  Mg  Mg2  1  0.00000000  0.00000000  0.00000000  1
  Si  Si3  1  0.40594522  0.40594522  0.78216334  1
  Si  Si4  1  0.59405478  0.59405478  0.21783666  1
  Se  Se5  1  0.75830771  0.75830771  0.24264037  1
  Se  Se6  1  0.24074422  0.75830771  0.24264037  1
  Se  Se7  1  0.75830771  0.24074422  0.24264037  1
  Se  Se8  1  0.24169229  0.75925578  0.75735963  1
  Se  Se9  1  0.75925578  0.24169229  0.75735963  1
  Se  Se10  1  0.24169229  0.24169229  0.75735963  1
