# generated using pymatgen
data_Tm2Se
_symmetry_space_group_name_H-M   'P 1'
_cell_length_a   3.73963099
_cell_length_b   3.73963099
_cell_length_c   13.24218635
_cell_angle_alpha   90.00000000
_cell_angle_beta   90.00000000
_cell_angle_gamma   120.00000005
_symmetry_Int_Tables_number   1
_chemical_formula_structural   Tm2Se
_chemical_formula_sum   'Tm4 Se2'
_cell_volume   160.37912041
_cell_formula_units_Z   2
loop_
 _symmetry_equiv_pos_site_id
 _symmetry_equiv_pos_as_xyz
  1  'x, y, z'
loop_
 _atom_site_type_symbol
 _atom_site_label
 _atom_site_symmetry_multiplicity
 _atom_site_fract_x
 _atom_site_fract_y
 _atom_site_fract_z
 _atom_site_occupancy
  Tm  Tm0  1  0.33333333  0.66666667  0.10390979  1
  Tm  Tm1  1  0.66666667  0.33333333  0.60390979  1
  Tm  Tm2  1  0.33333333  0.66666667  0.39609021  1
  Tm  Tm3  1  0.66666667  0.33333333  0.89609021  1
  Se  Se4  1  0.00000000  0.00000000  0.25000000  1
  Se  Se5  1  0.00000000  0.00000000  0.75000000  1
