# generated using pymatgen
data_Th3PSe2
_symmetry_space_group_name_H-M   'P 1'
_cell_length_a   7.25297608
_cell_length_b   7.23596415
_cell_length_c   7.26067668
_cell_angle_alpha   80.47323286
_cell_angle_beta   70.71663804
_cell_angle_gamma   59.92219825
_symmetry_Int_Tables_number   1
_chemical_formula_structural   Th3PSe2
_chemical_formula_sum   'Th6 P2 Se4'
_cell_volume   311.24610325
_cell_formula_units_Z   2
loop_
 _symmetry_equiv_pos_site_id
 _symmetry_equiv_pos_as_xyz
  1  'x, y, z'
loop_
 _atom_site_type_symbol
 _atom_site_label
 _atom_site_symmetry_multiplicity
 _atom_site_fract_x
 _atom_site_fract_y
 _atom_site_fract_z
 _atom_site_occupancy
  Th  Th0  1  0.42459432  0.65494775  0.76247621  1
  Th  Th1  1  0.26795629  0.00000000  0.23300256  1
  Th  Th2  1  0.57540568  0.34505225  0.23752379  1
  Th  Th3  1  0.92045793  0.65494775  0.23752379  1
  Th  Th4  1  0.07954207  0.34505225  0.76247621  1
  Th  Th5  1  0.73204371  1.00000000  0.76699744  1
  P  P6  1  0.66777800  0.66444499  0.00000000  1
  P  P7  1  0.33222200  0.33555501  1.00000000  1
  Se  Se8  1  0.00000000  0.00000000  0.00000000  1
  Se  Se9  1  0.50000000  0.00000000  0.50000000  1
  Se  Se10  1  0.16144240  0.67711619  0.50000000  1
  Se  Se11  1  0.83855760  0.32288381  0.50000000  1
