# generated using pymatgen
data_ScV4Os5
_symmetry_space_group_name_H-M   'P 1'
_cell_length_a   3.04047739
_cell_length_b   3.04047739
_cell_length_c   15.52460564
_cell_angle_alpha   90.00000000
_cell_angle_beta   90.00000000
_cell_angle_gamma   90.00000000
_symmetry_Int_Tables_number   1
_chemical_formula_structural   ScV4Os5
_chemical_formula_sum   'Sc1 V4 Os5'
_cell_volume   143.51725967
_cell_formula_units_Z   1
loop_
 _symmetry_equiv_pos_site_id
 _symmetry_equiv_pos_as_xyz
  1  'x, y, z'
loop_
 _atom_site_type_symbol
 _atom_site_label
 _atom_site_symmetry_multiplicity
 _atom_site_fract_x
 _atom_site_fract_y
 _atom_site_fract_z
 _atom_site_occupancy
  Sc  Sc0  1  0.00000000  0.00000000  0.00000000  1
  V  V1  1  0.00000000  0.00000000  0.20578113  1
  V  V2  1  0.00000000  0.00000000  0.40224799  1
  V  V3  1  0.00000000  0.00000000  0.59775201  1
  V  V4  1  0.00000000  0.00000000  0.79421887  1
  Os  Os5  1  0.50000000  0.50000000  0.11461414  1
  Os  Os6  1  0.50000000  0.50000000  0.30845661  1
  Os  Os7  1  0.50000000  0.50000000  0.50000000  1
  Os  Os8  1  0.50000000  0.50000000  0.69154339  1
  Os  Os9  1  0.50000000  0.50000000  0.88538586  1
