# generated using pymatgen
data_Co2Re
_symmetry_space_group_name_H-M   'P 1'
_cell_length_a   6.89056343
_cell_length_b   6.89056343
_cell_length_c   4.17557718
_cell_angle_alpha   90.00000000
_cell_angle_beta   90.00000000
_cell_angle_gamma   157.98563559
_symmetry_Int_Tables_number   1
_chemical_formula_structural   Co2Re
_chemical_formula_sum   'Co4 Re2'
_cell_volume   74.31402664
_cell_formula_units_Z   2
loop_
 _symmetry_equiv_pos_site_id
 _symmetry_equiv_pos_as_xyz
  1  'x, y, z'
loop_
 _atom_site_type_symbol
 _atom_site_label
 _atom_site_symmetry_multiplicity
 _atom_site_fract_x
 _atom_site_fract_y
 _atom_site_fract_z
 _atom_site_occupancy
  Co  Co0  1  0.89714624  0.10285376  0.75000000  1
  Co  Co1  1  0.10285376  0.89714624  0.25000000  1
  Co  Co2  1  0.44874437  0.55125563  0.25000000  1
  Co  Co3  1  0.55125563  0.44874437  0.75000000  1
  Re  Re4  1  0.21343555  0.78656445  0.75000000  1
  Re  Re5  1  0.78656445  0.21343555  0.25000000  1
