# generated using pymatgen
data_Pm(YSc2)2
_symmetry_space_group_name_H-M   'P 1'
_cell_length_a   8.41027632
_cell_length_b   8.13857614
_cell_length_c   6.78275327
_cell_angle_alpha   101.99926261
_cell_angle_beta   101.60701015
_cell_angle_gamma   114.06326237
_symmetry_Int_Tables_number   1
_chemical_formula_structural   Pm(YSc2)2
_chemical_formula_sum   'Pm2 Y4 Sc8'
_cell_volume   392.82589470
_cell_formula_units_Z   2
loop_
 _symmetry_equiv_pos_site_id
 _symmetry_equiv_pos_as_xyz
  1  'x, y, z'
loop_
 _atom_site_type_symbol
 _atom_site_label
 _atom_site_symmetry_multiplicity
 _atom_site_fract_x
 _atom_site_fract_y
 _atom_site_fract_z
 _atom_site_occupancy
  Pm  Pm0  1  0.26096215  0.73169024  0.55106469  1
  Pm  Pm1  1  0.09183863  0.24236903  0.13610231  1
  Y  Y2  1  0.79349216  0.38625919  0.34775492  1
  Y  Y3  1  0.09529396  0.25618748  0.64169928  1
  Y  Y4  1  0.78977831  0.38015675  0.84664367  1
  Y  Y5  1  0.25680007  0.72697280  0.05027789  1
  Sc  Sc6  1  0.65817719  0.97474494  0.46073152  1
  Sc  Sc7  1  0.52566315  0.56313164  0.82582521  1
  Sc  Sc8  1  0.39052688  0.15778541  0.43995193  1
  Sc  Sc9  1  0.65773830  0.97598465  0.96422622  1
  Sc  Sc10  1  0.90937346  0.81909511  0.73516708  1
  Sc  Sc11  1  0.90947002  0.81974397  0.23606690  1
  Sc  Sc12  1  0.52102742  0.55945569  0.32344972  1
  Sc  Sc13  1  0.38986132  0.15642611  0.94104367  1
