# generated using pymatgen
data_HoInAgHg
_symmetry_space_group_name_H-M   'P 1'
_cell_length_a   5.03805099
_cell_length_b   5.03805098
_cell_length_c   5.03805098
_cell_angle_alpha   59.99999996
_cell_angle_beta   60.00000001
_cell_angle_gamma   60.00000003
_symmetry_Int_Tables_number   1
_chemical_formula_structural   HoInAgHg
_chemical_formula_sum   'Ho1 In1 Ag1 Hg1'
_cell_volume   90.42170191
_cell_formula_units_Z   1
loop_
 _symmetry_equiv_pos_site_id
 _symmetry_equiv_pos_as_xyz
  1  'x, y, z'
loop_
 _atom_site_type_symbol
 _atom_site_label
 _atom_site_symmetry_multiplicity
 _atom_site_fract_x
 _atom_site_fract_y
 _atom_site_fract_z
 _atom_site_occupancy
  In  In0  1  0.25000000  0.25000000  0.25000000  1
  Hg  Hg1  1  0.50000000  0.50000000  0.50000000  1
  Ag  Ag2  1  0.00000000  0.00000000  0.00000000  1
  Ho  Ho3  1  0.75000000  0.75000000  0.75000000  1
