# generated using pymatgen
data_RbVAs
_symmetry_space_group_name_H-M   'P 1'
_cell_length_a   4.00691646
_cell_length_b   4.00990850
_cell_length_c   13.07985758
_cell_angle_alpha   95.86664510
_cell_angle_beta   90.00000000
_cell_angle_gamma   119.97532021
_symmetry_Int_Tables_number   1
_chemical_formula_structural   RbVAs
_chemical_formula_sum   'Rb2 V2 As2'
_cell_volume   180.77639456
_cell_formula_units_Z   2
loop_
 _symmetry_equiv_pos_site_id
 _symmetry_equiv_pos_as_xyz
  1  'x, y, z'
loop_
 _atom_site_type_symbol
 _atom_site_label
 _atom_site_symmetry_multiplicity
 _atom_site_fract_x
 _atom_site_fract_y
 _atom_site_fract_z
 _atom_site_occupancy
  Rb  Rb0  1  0.92867992  0.85735884  0.17623092  1
  Rb  Rb1  1  0.07132008  0.14264116  0.82376908  1
  As  As2  1  0.69531558  0.39063016  0.63289966  1
  As  As3  1  0.30468442  0.60936984  0.36710034  1
  V  V4  1  0.34601447  0.69202893  0.55975624  1
  V  V5  1  0.65398553  0.30797107  0.44024376  1
