# generated using pymatgen
data_SrB2Sb
_symmetry_space_group_name_H-M   'P 1'
_cell_length_a   4.99023929
_cell_length_b   4.99023929
_cell_length_c   7.89030878
_cell_angle_alpha   71.56516659
_cell_angle_beta   71.56516659
_cell_angle_gamma   90.00000000
_symmetry_Int_Tables_number   1
_chemical_formula_structural   SrB2Sb
_chemical_formula_sum   'Sr2 B4 Sb2'
_cell_volume   175.74476258
_cell_formula_units_Z   2
loop_
 _symmetry_equiv_pos_site_id
 _symmetry_equiv_pos_as_xyz
  1  'x, y, z'
loop_
 _atom_site_type_symbol
 _atom_site_label
 _atom_site_symmetry_multiplicity
 _atom_site_fract_x
 _atom_site_fract_y
 _atom_site_fract_z
 _atom_site_occupancy
  Sb  Sb0  1  0.00000000  0.00000000  0.00000000  1
  Sb  Sb1  1  0.75000000  0.25000000  0.50000000  1
  B  B2  1  0.75862770  0.12500000  0.25000000  1
  B  B3  1  0.99137230  0.62500000  0.25000000  1
  B  B4  1  0.37500000  0.24137230  0.75000000  1
  B  B5  1  0.87500000  0.00862770  0.75000000  1
  Sr  Sr6  1  0.50000000  0.50000000  0.00000000  1
  Sr  Sr7  1  0.25000000  0.75000000  0.50000000  1
