# generated using pymatgen
data_Np(HCl2)6
_symmetry_space_group_name_H-M   'P 1'
_cell_length_a   8.42577427
_cell_length_b   8.42576713
_cell_length_c   8.42576777
_cell_angle_alpha   90.00619401
_cell_angle_beta   90.00622787
_cell_angle_gamma   90.00620938
_symmetry_Int_Tables_number   1
_chemical_formula_structural   Np(HCl2)6
_chemical_formula_sum   'Np1 H6 Cl12'
_cell_volume   598.17567647
_cell_formula_units_Z   1
loop_
 _symmetry_equiv_pos_site_id
 _symmetry_equiv_pos_as_xyz
  1  'x, y, z'
loop_
 _atom_site_type_symbol
 _atom_site_label
 _atom_site_symmetry_multiplicity
 _atom_site_fract_x
 _atom_site_fract_y
 _atom_site_fract_z
 _atom_site_occupancy
  Np  Np0  1  0.00000000  0.00000000  0.00000000  1
  H  H1  1  0.68987240  0.69496528  0.48167812  1
  H  H2  1  0.51832188  0.31012760  0.30503472  1
  H  H3  1  0.30503472  0.51832188  0.31012760  1
  H  H4  1  0.31012760  0.30503472  0.51832188  1
  H  H5  1  0.48167812  0.68987240  0.69496528  1
  H  H6  1  0.69496528  0.48167812  0.68987240  1
  Cl  Cl7  1  0.80680533  0.59505215  0.46332104  1
  Cl  Cl8  1  0.46332004  0.80680533  0.59505215  1
  Cl  Cl9  1  0.59505215  0.46332004  0.80680533  1
  Cl  Cl10  1  0.19319467  0.40494785  0.53667896  1
  Cl  Cl11  1  0.53667996  0.19319467  0.40494785  1
  Cl  Cl12  1  0.40494785  0.53667996  0.19319467  1
  Cl  Cl13  1  0.08495000  0.93577339  0.27148127  1
  Cl  Cl14  1  0.06422561  0.72851873  0.91505000  1
  Cl  Cl15  1  0.72851873  0.91505000  0.06422561  1
  Cl  Cl16  1  0.91505000  0.06422661  0.72851873  1
  Cl  Cl17  1  0.93577439  0.27148127  0.08495000  1
  Cl  Cl18  1  0.27148127  0.08495000  0.93577439  1
