# generated using pymatgen
data_MgTcSn3
_symmetry_space_group_name_H-M   'P 1'
_cell_length_a   3.49830330
_cell_length_b   5.17191163
_cell_length_c   13.40304875
_cell_angle_alpha   90.00000000
_cell_angle_beta   90.00000000
_cell_angle_gamma   109.76738102
_symmetry_Int_Tables_number   1
_chemical_formula_structural   MgTcSn3
_chemical_formula_sum   'Mg2 Tc2 Sn6'
_cell_volume   228.21053017
_cell_formula_units_Z   2
loop_
 _symmetry_equiv_pos_site_id
 _symmetry_equiv_pos_as_xyz
  1  'x, y, z'
loop_
 _atom_site_type_symbol
 _atom_site_label
 _atom_site_symmetry_multiplicity
 _atom_site_fract_x
 _atom_site_fract_y
 _atom_site_fract_z
 _atom_site_occupancy
  Mg  Mg0  1  0.17701162  1.00000000  0.50000000  1
  Mg  Mg1  1  0.17701162  1.00000000  0.00000000  1
  Tc  Tc2  1  0.31447003  0.27699933  0.75000000  1
  Tc  Tc3  1  0.03747069  0.72300067  0.25000000  1
  Sn  Sn4  1  0.89413337  0.43625187  0.60218943  1
  Sn  Sn5  1  0.89413337  0.43625187  0.89781057  1
  Sn  Sn6  1  0.60050479  0.84901727  0.75000000  1
  Sn  Sn7  1  0.45788150  0.56374813  0.10218943  1
  Sn  Sn8  1  0.45788150  0.56374813  0.39781057  1
  Sn  Sn9  1  0.75148752  0.15098273  0.25000000  1
