# generated using pymatgen
data_MnSbS2Br
_symmetry_space_group_name_H-M   'P 1'
_cell_length_a   10.85439314
_cell_length_b   3.72201862
_cell_length_c   19.19721071
_cell_angle_alpha   90.00000000
_cell_angle_beta   90.00000000
_cell_angle_gamma   90.00000000
_symmetry_Int_Tables_number   1
_chemical_formula_structural   MnSbS2Br
_chemical_formula_sum   'Mn2 Sb2 S4 Br2'
_cell_volume   775.57217679
_cell_formula_units_Z   2
loop_
 _symmetry_equiv_pos_site_id
 _symmetry_equiv_pos_as_xyz
  1  'x, y, z'
loop_
 _atom_site_type_symbol
 _atom_site_label
 _atom_site_symmetry_multiplicity
 _atom_site_fract_x
 _atom_site_fract_y
 _atom_site_fract_z
 _atom_site_occupancy
  Sb  Sb0  1  0.28602388  0.00000000  0.39068176  1
  Sb  Sb1  1  0.71397612  0.00000000  0.60931824  1
  S  S2  1  0.24650105  0.50000000  0.47878993  1
  S  S3  1  0.75349895  0.50000000  0.52121007  1
  S  S4  1  0.49464209  0.00000000  0.59084837  1
  S  S5  1  0.50535791  0.00000000  0.40915163  1
  Mn  Mn6  1  0.00000000  0.50000000  0.50000000  1
  Mn  Mn7  1  0.50000000  0.50000000  0.50000000  1
  Br  Br8  1  0.97107509  0.00000000  0.40389629  1
  Br  Br9  1  0.02892491  0.00000000  0.59610371  1
