# generated using pymatgen
data_Ba4Li3Ge2
_symmetry_space_group_name_H-M   'P 1'
_cell_length_a   4.83361426
_cell_length_b   7.45688499
_cell_length_c   9.63889200
_cell_angle_alpha   108.00705942
_cell_angle_beta   104.52100676
_cell_angle_gamma   89.99999421
_symmetry_Int_Tables_number   1
_chemical_formula_structural   Ba4Li3Ge2
_chemical_formula_sum   'Ba4 Li3 Ge2'
_cell_volume   318.71402331
_cell_formula_units_Z   1
loop_
 _symmetry_equiv_pos_site_id
 _symmetry_equiv_pos_as_xyz
  1  'x, y, z'
loop_
 _atom_site_type_symbol
 _atom_site_label
 _atom_site_symmetry_multiplicity
 _atom_site_fract_x
 _atom_site_fract_y
 _atom_site_fract_z
 _atom_site_occupancy
  Ba  Ba0  1  0.22558613  0.69548119  0.45117226  1
  Ba  Ba1  1  0.77441387  0.30451881  0.54882774  1
  Ba  Ba2  1  0.56679612  0.84306203  0.13359223  1
  Ba  Ba3  1  0.43320388  0.15693797  0.86640777  1
  Li  Li4  1  0.09213056  0.25059413  0.18426212  1
  Li  Li5  1  0.90786944  0.74940587  0.81573788  1
  Li  Li6  1  0.00000000  0.50000000  0.00000000  1
  Ge  Ge7  1  0.38909282  0.56943960  0.77818565  1
  Ge  Ge8  1  0.61090718  0.43056040  0.22181435  1
