# generated using pymatgen
data_YIn2OsO8
_symmetry_space_group_name_H-M   'P 1'
_cell_length_a   4.95034757
_cell_length_b   4.93892063
_cell_length_c   6.62768478
_cell_angle_alpha   89.99813016
_cell_angle_beta   89.99994472
_cell_angle_gamma   90.74141280
_symmetry_Int_Tables_number   1
_chemical_formula_structural   YIn2OsO8
_chemical_formula_sum   'Y1 In2 Os1 O8'
_cell_volume   162.02917566
_cell_formula_units_Z   1
loop_
 _symmetry_equiv_pos_site_id
 _symmetry_equiv_pos_as_xyz
  1  'x, y, z'
loop_
 _atom_site_type_symbol
 _atom_site_label
 _atom_site_symmetry_multiplicity
 _atom_site_fract_x
 _atom_site_fract_y
 _atom_site_fract_z
 _atom_site_occupancy
  Y  Y0  1  -0.00000000  0.00000000  0.50000000  1
  In  In1  1  0.49998575  0.49998583  0.74906495  1
  In  In2  1  0.50001425  0.50001417  0.25093505  1
  Os  Os3  1  0.00000000  0.00000000  0.00000000  1
  O  O4  1  0.18430256  0.81319839  0.20890205  1
  O  O5  1  0.72063149  0.72279115  0.99999558  1
  O  O6  1  0.81568886  0.18679418  0.20889597  1
  O  O7  1  0.81569744  0.18680161  0.79109795  1
  O  O8  1  0.27936851  0.27720885  0.00000442  1
  O  O9  1  0.18431114  0.81320582  0.79110403  1
  O  O10  1  0.68945283  0.69181859  0.50000976  1
  O  O11  1  0.31054717  0.30818141  0.49999024  1
