# generated using pymatgen
data_Nd(YEr4)3
_symmetry_space_group_name_H-M   'P 1'
_cell_length_a   4.99289739
_cell_length_b   4.99289739
_cell_length_c   19.97246991
_cell_angle_alpha   90.00000000
_cell_angle_beta   90.00000000
_cell_angle_gamma   90.00000000
_symmetry_Int_Tables_number   1
_chemical_formula_structural   Nd(YEr4)3
_chemical_formula_sum   'Nd1 Y3 Er12'
_cell_volume   497.89418866
_cell_formula_units_Z   1
loop_
 _symmetry_equiv_pos_site_id
 _symmetry_equiv_pos_as_xyz
  1  'x, y, z'
loop_
 _atom_site_type_symbol
 _atom_site_label
 _atom_site_symmetry_multiplicity
 _atom_site_fract_x
 _atom_site_fract_y
 _atom_site_fract_z
 _atom_site_occupancy
  Nd  Nd0  1  0.00000000  0.00000000  0.00000000  1
  Y  Y1  1  0.00000000  0.00000000  0.25059063  1
  Y  Y2  1  0.00000000  0.00000000  0.50000000  1
  Y  Y3  1  0.00000000  0.00000000  0.74940937  1
  Er  Er4  1  0.50000000  0.50000000  0.00000000  1
  Er  Er5  1  0.50000000  0.50000000  0.25113760  1
  Er  Er6  1  0.50000000  0.50000000  0.50000000  1
  Er  Er7  1  0.50000000  0.50000000  0.74886240  1
  Er  Er8  1  0.50000000  0.00000000  0.12611087  1
  Er  Er9  1  0.50000000  0.00000000  0.37537107  1
  Er  Er10  1  0.50000000  0.00000000  0.62462893  1
  Er  Er11  1  0.50000000  0.00000000  0.87388913  1
  Er  Er12  1  0.00000000  0.50000000  0.12611087  1
  Er  Er13  1  0.00000000  0.50000000  0.37537107  1
  Er  Er14  1  0.00000000  0.50000000  0.62462893  1
  Er  Er15  1  0.00000000  0.50000000  0.87388913  1
