# generated using pymatgen
data_Sc3HgO
_symmetry_space_group_name_H-M   'P 1'
_cell_length_a   6.15978176
_cell_length_b   6.15978176
_cell_length_c   7.02318829
_cell_angle_alpha   63.98976308
_cell_angle_beta   63.98976308
_cell_angle_gamma   90.00000000
_symmetry_Int_Tables_number   1
_chemical_formula_structural   Sc3HgO
_chemical_formula_sum   'Sc6 Hg2 O2'
_cell_volume   209.04346680
_cell_formula_units_Z   2
loop_
 _symmetry_equiv_pos_site_id
 _symmetry_equiv_pos_as_xyz
  1  'x, y, z'
loop_
 _atom_site_type_symbol
 _atom_site_label
 _atom_site_symmetry_multiplicity
 _atom_site_fract_x
 _atom_site_fract_y
 _atom_site_fract_z
 _atom_site_occupancy
  Sc  Sc0  1  0.13261286  0.88057901  0.23884197  1
  Sc  Sc1  1  0.11942099  0.86738714  0.76115803  1
  Sc  Sc2  1  0.11942099  0.37145483  0.76115803  1
  Sc  Sc3  1  0.62854517  0.88057901  0.23884197  1
  Sc  Sc4  1  0.37382354  0.37382354  0.25235293  1
  Sc  Sc5  1  0.62617646  0.62617646  0.74764707  1
  Hg  Hg6  1  0.61619182  0.11619182  0.76761635  1
  Hg  Hg7  1  0.88380818  0.38380818  0.23238365  1
  O  O8  1  0.00000000  0.00000000  0.00000000  1
  O  O9  1  0.25000000  0.75000000  0.50000000  1
