# generated using pymatgen
data_Pu(Co2Si3)2
_symmetry_space_group_name_H-M   'P 1'
_cell_length_a   6.08070950
_cell_length_b   6.08070995
_cell_length_c   5.96072131
_cell_angle_alpha   120.66642596
_cell_angle_beta   120.66620637
_cell_angle_gamma   90.00335150
_symmetry_Int_Tables_number   1
_chemical_formula_structural   Pu(Co2Si3)2
_chemical_formula_sum   'Pu1 Co4 Si6'
_cell_volume   152.64733891
_cell_formula_units_Z   1
loop_
 _symmetry_equiv_pos_site_id
 _symmetry_equiv_pos_as_xyz
  1  'x, y, z'
loop_
 _atom_site_type_symbol
 _atom_site_label
 _atom_site_symmetry_multiplicity
 _atom_site_fract_x
 _atom_site_fract_y
 _atom_site_fract_z
 _atom_site_occupancy
  Si  Si0  1  0.50424937  0.87970223  0.38395084  1
  Si  Si1  1  0.87970297  0.50425416  0.38395342  1
  Si  Si2  1  0.12032109  0.12031877  0.61605085  1
  Si  Si3  1  0.50001793  0.00000856  0.00000981  1
  Si  Si4  1  0.49570020  0.49569736  0.61602345  1
  Si  Si5  1  0.00000688  0.50001751  0.00000759  1
  Co  Co6  1  0.57354741  0.24244512  0.81598522  1
  Co  Co7  1  0.42647826  0.42648027  0.18403983  1
  Co  Co8  1  0.24244360  0.57354798  0.81598408  1
  Co  Co9  1  0.75755143  0.75755417  0.18404265  1
  Pu  Pu10  1  0.99997387  0.99997687  0.99994325  1
