# generated using pymatgen
data_Al4CuOs3
_symmetry_space_group_name_H-M   'P 1'
_cell_length_a   3.08199165
_cell_length_b   4.19539634
_cell_length_c   8.47588004
_cell_angle_alpha   90.00000000
_cell_angle_beta   90.00000000
_cell_angle_gamma   90.00000000
_symmetry_Int_Tables_number   1
_chemical_formula_structural   Al4CuOs3
_chemical_formula_sum   'Al4 Cu1 Os3'
_cell_volume   109.59462481
_cell_formula_units_Z   1
loop_
 _symmetry_equiv_pos_site_id
 _symmetry_equiv_pos_as_xyz
  1  'x, y, z'
loop_
 _atom_site_type_symbol
 _atom_site_label
 _atom_site_symmetry_multiplicity
 _atom_site_fract_x
 _atom_site_fract_y
 _atom_site_fract_z
 _atom_site_occupancy
  Os  Os0  1  0.50000000  0.00000000  0.23748698  1
  Os  Os1  1  0.50000000  0.50000000  0.50000000  1
  Os  Os2  1  0.50000000  0.00000000  0.76251302  1
  Al  Al3  1  0.00000000  0.00000000  0.50000000  1
  Al  Al4  1  0.00000000  0.50000000  0.74066845  1
  Al  Al5  1  0.00000000  0.00000000  0.00000000  1
  Al  Al6  1  0.00000000  0.50000000  0.25933155  1
  Cu  Cu7  1  0.50000000  0.50000000  0.00000000  1
