# generated using pymatgen
data_HfPa2As
_symmetry_space_group_name_H-M   'P 1'
_cell_length_a   3.47173947
_cell_length_b   3.47173948
_cell_length_c   9.61026631
_cell_angle_alpha   79.59374033
_cell_angle_beta   79.59374033
_cell_angle_gamma   59.99999996
_symmetry_Int_Tables_number   1
_chemical_formula_structural   HfPa2As
_chemical_formula_sum   'Hf1 Pa2 As1'
_cell_volume   98.10756625
_cell_formula_units_Z   1
loop_
 _symmetry_equiv_pos_site_id
 _symmetry_equiv_pos_as_xyz
  1  'x, y, z'
loop_
 _atom_site_type_symbol
 _atom_site_label
 _atom_site_symmetry_multiplicity
 _atom_site_fract_x
 _atom_site_fract_y
 _atom_site_fract_z
 _atom_site_occupancy
  As  As0  1  0.00000000  0.00000000  0.00000000  1
  Pa  Pa1  1  0.26066086  0.26066086  0.21801843  1
  Pa  Pa2  1  0.73933914  0.73933914  0.78198157  1
  Hf  Hf3  1  0.50000000  0.50000000  0.50000000  1
