# generated using pymatgen
data_Sc3TlHg
_symmetry_space_group_name_H-M   'P 1'
_cell_length_a   5.02142659
_cell_length_b   5.02226183
_cell_length_c   9.47398384
_cell_angle_alpha   90.00000000
_cell_angle_beta   74.63238132
_cell_angle_gamma   90.00000000
_symmetry_Int_Tables_number   1
_chemical_formula_structural   Sc3TlHg
_chemical_formula_sum   'Sc6 Tl2 Hg2'
_cell_volume   230.38099698
_cell_formula_units_Z   2
loop_
 _symmetry_equiv_pos_site_id
 _symmetry_equiv_pos_as_xyz
  1  'x, y, z'
loop_
 _atom_site_type_symbol
 _atom_site_label
 _atom_site_symmetry_multiplicity
 _atom_site_fract_x
 _atom_site_fract_y
 _atom_site_fract_z
 _atom_site_occupancy
  Sc  Sc0  1  0.76949641  0.25000000  0.10935018  1
  Sc  Sc1  1  0.37937221  0.25000000  0.88960957  1
  Sc  Sc2  1  0.57430973  0.25000000  0.49973255  1
  Sc  Sc3  1  0.26898079  0.75000000  0.11039043  1
  Sc  Sc4  1  0.87884659  0.75000000  0.89064982  1
  Sc  Sc5  1  0.07404227  0.75000000  0.50026745  1
  Tl  Tl6  1  0.67401339  0.75000000  0.30032221  1
  Tl  Tl7  1  0.97433561  0.25000000  0.69967779  1
  Hg  Hg8  1  0.47107662  0.75000000  0.70619576  1
  Hg  Hg9  1  0.17727238  0.25000000  0.29380424  1
