# generated using pymatgen
data_PmMnAl11
_symmetry_space_group_name_H-M   'P 1'
_cell_length_a   5.21473947
_cell_length_b   7.12869431
_cell_length_c   6.82361534
_cell_angle_alpha   82.39922938
_cell_angle_beta   67.53557051
_cell_angle_gamma   69.74759223
_symmetry_Int_Tables_number   1
_chemical_formula_structural   PmMnAl11
_chemical_formula_sum   'Pm1 Mn1 Al11'
_cell_volume   219.92204095
_cell_formula_units_Z   1
loop_
 _symmetry_equiv_pos_site_id
 _symmetry_equiv_pos_as_xyz
  1  'x, y, z'
loop_
 _atom_site_type_symbol
 _atom_site_label
 _atom_site_symmetry_multiplicity
 _atom_site_fract_x
 _atom_site_fract_y
 _atom_site_fract_z
 _atom_site_occupancy
  Pm  Pm0  1  0.00000000  0.00000000  0.00000000  1
  Mn  Mn1  1  0.50000000  0.50000000  -0.00000000  1
  Al  Al2  1  0.28514938  0.22966145  0.21530032  1
  Al  Al3  1  0.71485062  0.77033855  0.78469968  1
  Al  Al4  1  0.49955031  0.77033855  0.21530032  1
  Al  Al5  1  0.50044969  0.22966145  0.78469968  1
  Al  Al6  1  0.36940429  0.63681267  0.65723752  1
  Al  Al7  1  0.63059571  0.36318733  0.34276248  1
  Al  Al8  1  0.97335818  0.36318733  0.65723752  1
  Al  Al9  1  0.02664182  0.63681267  0.34276248  1
  Al  Al10  1  -0.00000000  0.50000000  -0.00000000  1
  Al  Al11  1  0.50000000  -0.00000000  0.50000000  1
  Al  Al12  1  0.00000000  0.00000000  0.50000000  1
