# generated using pymatgen
data_Al6TcAu
_symmetry_space_group_name_H-M   'P 1'
_cell_length_a   4.57290032
_cell_length_b   4.57290032
_cell_length_c   7.71823985
_cell_angle_alpha   73.43883654
_cell_angle_beta   73.43883655
_cell_angle_gamma   69.54077982
_symmetry_Int_Tables_number   1
_chemical_formula_structural   Al6TcAu
_chemical_formula_sum   'Al6 Tc1 Au1'
_cell_volume   141.82268102
_cell_formula_units_Z   1
loop_
 _symmetry_equiv_pos_site_id
 _symmetry_equiv_pos_as_xyz
  1  'x, y, z'
loop_
 _atom_site_type_symbol
 _atom_site_label
 _atom_site_symmetry_multiplicity
 _atom_site_fract_x
 _atom_site_fract_y
 _atom_site_fract_z
 _atom_site_occupancy
  Al  Al0  1  0.07116965  0.57208222  0.29868544  1
  Al  Al1  1  0.57208222  0.07116965  0.29868544  1
  Al  Al2  1  0.42791778  0.92883035  0.70131456  1
  Al  Al3  1  0.92883035  0.42791778  0.70131456  1
  Al  Al4  1  0.34297439  0.34297439  0.96841988  1
  Al  Al5  1  0.65702561  0.65702561  0.03158012  1
  Tc  Tc6  1  0.00000000  0.00000000  0.00000000  1
  Au  Au7  1  0.50000000  0.50000000  0.50000000  1
