# generated using pymatgen
data_Tm2Cr2O7
_symmetry_space_group_name_H-M   'P 1'
_cell_length_a   7.05403522
_cell_length_b   7.05403534
_cell_length_c   7.05403519
_cell_angle_alpha   60.00000065
_cell_angle_beta   60.00000011
_cell_angle_gamma   60.00000062
_symmetry_Int_Tables_number   1
_chemical_formula_structural   Tm2Cr2O7
_chemical_formula_sum   'Tm4 Cr4 O14'
_cell_volume   248.19777484
_cell_formula_units_Z   2
loop_
 _symmetry_equiv_pos_site_id
 _symmetry_equiv_pos_as_xyz
  1  'x, y, z'
loop_
 _atom_site_type_symbol
 _atom_site_label
 _atom_site_symmetry_multiplicity
 _atom_site_fract_x
 _atom_site_fract_y
 _atom_site_fract_z
 _atom_site_occupancy
  Tm  Tm0  1  0.62500000  0.62500000  0.62500000  1
  Tm  Tm1  1  0.62500000  0.62500000  0.12500000  1
  Tm  Tm2  1  0.62500000  0.12500000  0.62500000  1
  Tm  Tm3  1  0.12500000  0.62500000  0.62500000  1
  Cr  Cr4  1  0.62500000  0.12500000  0.12500000  1
  Cr  Cr5  1  0.12500000  0.62500000  0.12500000  1
  Cr  Cr6  1  0.12500000  0.12500000  0.62500000  1
  Cr  Cr7  1  0.12500000  0.12500000  0.12500000  1
  O  O8  1  0.20693938  0.20693938  0.79306062  1
  O  O9  1  0.20693938  0.79306062  0.20693938  1
  O  O10  1  0.45693938  0.04306062  0.45693938  1
  O  O11  1  0.45693938  0.45693938  0.04306062  1
  O  O12  1  0.75000000  0.75000000  0.75000000  1
  O  O13  1  0.79306062  0.20693938  0.20693938  1
  O  O14  1  0.45693938  0.04306062  0.04306062  1
  O  O15  1  0.04306062  0.45693938  0.45693938  1
  O  O16  1  0.04306062  0.04306062  0.45693938  1
  O  O17  1  0.04306062  0.45693938  0.04306062  1
  O  O18  1  0.20693938  0.79306062  0.79306062  1
  O  O19  1  0.50000000  0.50000000  0.50000000  1
  O  O20  1  0.79306062  0.20693938  0.79306062  1
  O  O21  1  0.79306062  0.79306062  0.20693938  1
