# generated using pymatgen
data_MgUReO6
_symmetry_space_group_name_H-M   'P 1'
_cell_length_a   5.30862533
_cell_length_b   5.30862534
_cell_length_c   8.90441931
_cell_angle_alpha   90.00000000
_cell_angle_beta   90.00000000
_cell_angle_gamma   120.00000002
_symmetry_Int_Tables_number   1
_chemical_formula_structural   MgUReO6
_chemical_formula_sum   'Mg2 U2 Re2 O12'
_cell_volume   217.32034453
_cell_formula_units_Z   2
loop_
 _symmetry_equiv_pos_site_id
 _symmetry_equiv_pos_as_xyz
  1  'x, y, z'
loop_
 _atom_site_type_symbol
 _atom_site_label
 _atom_site_symmetry_multiplicity
 _atom_site_fract_x
 _atom_site_fract_y
 _atom_site_fract_z
 _atom_site_occupancy
  Mg  Mg0  1  0.33333333  0.66666667  0.25000000  1
  Mg  Mg1  1  0.66666667  0.33333333  0.75000000  1
  U  U2  1  0.66666667  0.33333333  0.25000000  1
  U  U3  1  0.33333333  0.66666667  0.75000000  1
  Re  Re4  1  0.00000000  0.00000000  0.00000000  1
  Re  Re5  1  0.00000000  0.00000000  0.50000000  1
  O  O6  1  0.68282216  0.68383545  0.12569829  1
  O  O7  1  0.00101329  0.31717684  0.12569829  1
  O  O8  1  0.31717784  0.00101429  0.62569829  1
  O  O9  1  0.99898671  0.68282316  0.87430171  1
  O  O10  1  0.31616355  0.31717684  0.37430171  1
  O  O11  1  0.00101329  0.68383545  0.37430171  1
  O  O12  1  0.68383645  0.00101429  0.87430171  1
  O  O13  1  0.68282216  0.99898571  0.37430171  1
  O  O14  1  0.99898671  0.31616455  0.62569829  1
  O  O15  1  0.31616355  0.99898571  0.12569829  1
  O  O16  1  0.68383645  0.68282316  0.62569829  1
  O  O17  1  0.31717784  0.31616455  0.87430171  1
