# generated using pymatgen
data_CaTe
_symmetry_space_group_name_H-M   'P 1'
_cell_length_a   23.21587691
_cell_length_b   23.21587692
_cell_length_c   15.00225220
_cell_angle_alpha   90.00000000
_cell_angle_beta   90.00000000
_cell_angle_gamma   120.00000000
_symmetry_Int_Tables_number   1
_chemical_formula_structural   CaTe
_chemical_formula_sum   'Ca6 Te6'
_cell_volume   7002.56709645
_cell_formula_units_Z   6
loop_
 _symmetry_equiv_pos_site_id
 _symmetry_equiv_pos_as_xyz
  1  'x, y, z'
loop_
 _atom_site_type_symbol
 _atom_site_label
 _atom_site_symmetry_multiplicity
 _atom_site_fract_x
 _atom_site_fract_y
 _atom_site_fract_z
 _atom_site_occupancy
  Ca  Ca0  1  0.62060693  0.21166383  0.49992494  1
  Ca  Ca1  1  0.78833617  0.40894309  0.49992494  1
  Ca  Ca2  1  0.59105691  0.37939307  0.49992494  1
  Ca  Ca3  1  0.21166383  0.62060693  0.49992494  1
  Ca  Ca4  1  0.40894309  0.78833617  0.49992494  1
  Ca  Ca5  1  0.37939307  0.59105691  0.49992494  1
  Te  Te6  1  0.72577111  0.48936575  0.50007506  1
  Te  Te7  1  0.51063425  0.23640536  0.50007506  1
  Te  Te8  1  0.76359464  0.27422889  0.50007506  1
  Te  Te9  1  0.48936575  0.72577111  0.50007506  1
  Te  Te10  1  0.23640536  0.51063425  0.50007506  1
  Te  Te11  1  0.27422889  0.76359464  0.50007506  1
