# generated using pymatgen
data_Ho2ScPaN4
_symmetry_space_group_name_H-M   'P 1'
_cell_length_a   3.43005535
_cell_length_b   5.89605592
_cell_length_c   5.85818634
_cell_angle_alpha   71.05184596
_cell_angle_beta   89.99972203
_cell_angle_gamma   89.99968493
_symmetry_Int_Tables_number   1
_chemical_formula_structural   Ho2ScPaN4
_chemical_formula_sum   'Ho2 Sc1 Pa1 N4'
_cell_volume   112.05496032
_cell_formula_units_Z   1
loop_
 _symmetry_equiv_pos_site_id
 _symmetry_equiv_pos_as_xyz
  1  'x, y, z'
loop_
 _atom_site_type_symbol
 _atom_site_label
 _atom_site_symmetry_multiplicity
 _atom_site_fract_x
 _atom_site_fract_y
 _atom_site_fract_z
 _atom_site_occupancy
  Ho  Ho0  1  -0.00000000  0.00000100  0.99999900  1
  Ho  Ho1  1  0.50000000  0.00000100  0.49999900  1
  Sc  Sc2  1  0.49999900  0.50000150  0.99999950  1
  Pa  Pa3  1  0.00000050  0.49999400  0.50000450  1
  N  N4  1  0.00000300  0.73418014  0.75185555  1
  N  N5  1  0.99999600  0.26582136  0.24814295  1
  N  N6  1  0.50000200  0.73926726  0.24875335  1
  N  N7  1  0.49999700  0.26073374  0.75124565  1
