# generated using pymatgen
data_Mg2NpFeH8
_symmetry_space_group_name_H-M   'P 1'
_cell_length_a   4.37101674
_cell_length_b   4.37101852
_cell_length_c   6.18116896
_cell_angle_alpha   90.00032355
_cell_angle_beta   90.00027778
_cell_angle_gamma   59.99785834
_symmetry_Int_Tables_number   1
_chemical_formula_structural   Mg2NpFeH8
_chemical_formula_sum   'Mg2 Np1 Fe1 H8'
_cell_volume   102.27205695
_cell_formula_units_Z   1
loop_
 _symmetry_equiv_pos_site_id
 _symmetry_equiv_pos_as_xyz
  1  'x, y, z'
loop_
 _atom_site_type_symbol
 _atom_site_label
 _atom_site_symmetry_multiplicity
 _atom_site_fract_x
 _atom_site_fract_y
 _atom_site_fract_z
 _atom_site_occupancy
  Np  Np0  1  0.00000000  -0.00000000  0.50000000  1
  H  H1  1  0.83694116  0.83694101  0.83731845  1
  H  H2  1  0.32612472  0.83693509  0.83731995  1
  H  H3  1  0.83693451  0.32612534  0.83731957  1
  H  H4  1  0.16305884  0.16305899  0.16268155  1
  H  H5  1  0.67387528  0.16306491  0.16268005  1
  H  H6  1  0.16306549  0.67387466  0.16268043  1
  H  H7  1  0.66666796  0.66666795  0.45161324  1
  H  H8  1  0.33333204  0.33333205  0.54838676  1
  Mg  Mg9  1  0.66666827  0.66666810  0.13292699  1
  Mg  Mg10  1  0.33333173  0.33333190  0.86707301  1
  Fe  Fe11  1  0.00000000  0.00000000  0.00000000  1
