# generated using pymatgen
data_CeGeRu3
_symmetry_space_group_name_H-M   'P 1'
_cell_length_a   4.59251495
_cell_length_b   6.94636214
_cell_length_c   6.94636214
_cell_angle_alpha   118.89258605
_cell_angle_beta   90.00000000
_cell_angle_gamma   90.00000000
_symmetry_Int_Tables_number   1
_chemical_formula_structural   CeGeRu3
_chemical_formula_sum   'Ce2 Ge2 Ru6'
_cell_volume   194.01485855
_cell_formula_units_Z   2
loop_
 _symmetry_equiv_pos_site_id
 _symmetry_equiv_pos_as_xyz
  1  'x, y, z'
loop_
 _atom_site_type_symbol
 _atom_site_label
 _atom_site_symmetry_multiplicity
 _atom_site_fract_x
 _atom_site_fract_y
 _atom_site_fract_z
 _atom_site_occupancy
  Ce  Ce0  1  0.75000000  0.56569450  0.43430550  1
  Ce  Ce1  1  0.25000000  0.43430550  0.56569450  1
  Ge  Ge2  1  0.75000000  0.80508703  0.19491297  1
  Ge  Ge3  1  0.25000000  0.19491297  0.80508703  1
  Ru  Ru4  1  0.75000000  0.50686681  0.83968515  1
  Ru  Ru5  1  0.75000000  0.16031485  0.49313319  1
  Ru  Ru6  1  0.25000000  0.83968515  0.50686681  1
  Ru  Ru7  1  0.25000000  0.49313319  0.16031485  1
  Ru  Ru8  1  0.00000000  0.00000000  0.00000000  1
  Ru  Ru9  1  0.50000000  0.00000000  0.00000000  1
