# generated using pymatgen
data_Tl3V5Te12
_symmetry_space_group_name_H-M   'P 1'
_cell_length_a   15.00769555
_cell_length_b   15.00769553
_cell_length_c   15.00769553
_cell_angle_alpha   109.47122062
_cell_angle_beta   109.47122064
_cell_angle_gamma   109.47122065
_symmetry_Int_Tables_number   1
_chemical_formula_structural   Tl3V5Te12
_chemical_formula_sum   'Tl12 V20 Te48'
_cell_volume   2602.07698198
_cell_formula_units_Z   4
loop_
 _symmetry_equiv_pos_site_id
 _symmetry_equiv_pos_as_xyz
  1  'x, y, z'
loop_
 _atom_site_type_symbol
 _atom_site_label
 _atom_site_symmetry_multiplicity
 _atom_site_fract_x
 _atom_site_fract_y
 _atom_site_fract_z
 _atom_site_occupancy
  Tl  Tl0  1  0.75000000  0.37500000  0.12500000  1
  Tl  Tl1  1  0.87500000  0.75000000  0.12500000  1
  Tl  Tl2  1  0.37500000  0.75000000  0.62500000  1
  Tl  Tl3  1  0.25000000  0.12500000  0.37500000  1
  Tl  Tl4  1  0.87500000  0.12500000  0.25000000  1
  Tl  Tl5  1  0.37500000  0.62500000  0.25000000  1
  Tl  Tl6  1  0.62500000  0.37500000  0.75000000  1
  Tl  Tl7  1  0.12500000  0.87500000  0.75000000  1
  Tl  Tl8  1  0.75000000  0.87500000  0.62500000  1
  Tl  Tl9  1  0.62500000  0.25000000  0.37500000  1
  Tl  Tl10  1  0.12500000  0.25000000  0.87500000  1
  Tl  Tl11  1  0.25000000  0.62500000  0.87500000  1
  V  V12  1  0.12500000  0.37500000  0.25000000  1
  V  V13  1  0.00000000  0.50000000  0.00000000  1
  V  V14  1  0.00000000  0.00000000  0.00000000  1
  V  V15  1  0.37500000  0.25000000  0.12500000  1
  V  V16  1  0.50000000  0.00000000  0.50000000  1
  V  V17  1  0.50000000  0.50000000  0.00000000  1
  V  V18  1  0.12500000  0.75000000  0.37500000  1
  V  V19  1  0.75000000  0.12500000  0.87500000  1
  V  V20  1  0.75000000  0.62500000  0.37500000  1
  V  V21  1  0.37500000  0.12500000  0.75000000  1
  V  V22  1  0.62500000  0.87500000  0.25000000  1
  V  V23  1  0.50000000  0.50000000  0.50000000  1
  V  V24  1  0.50000000  0.00000000  0.00000000  1
  V  V25  1  0.00000000  0.00000000  0.50000000  1
  V  V26  1  0.25000000  0.37500000  0.62500000  1
  V  V27  1  0.25000000  0.87500000  0.12500000  1
  V  V28  1  0.00000000  0.50000000  0.50000000  1
  V  V29  1  0.87500000  0.25000000  0.62500000  1
  V  V30  1  0.62500000  0.75000000  0.87500000  1
  V  V31  1  0.87500000  0.62500000  0.75000000  1
  Te  Te32  1  0.69679280  0.10634635  0.01292446  1
  Te  Te33  1  0.31613166  0.51292446  0.40657811  1
  Te  Te34  1  0.98707554  0.39365365  0.30320720  1
  Te  Te35  1  0.51292446  0.19679280  0.10634635  1
  Te  Te36  1  0.59044644  0.69679280  0.68386834  1
  Te  Te37  1  0.98707554  0.59342189  0.18386834  1
  Te  Te38  1  0.31613166  0.80320720  0.40955356  1
  Te  Te39  1  0.09342189  0.90955356  0.10634635  1
  Te  Te40  1  0.59342189  0.98707554  0.68386834  1
  Te  Te41  1  0.69679280  0.59044644  0.18386834  1
  Te  Te42  1  0.80320720  0.48707554  0.39365365  1
  Te  Te43  1  0.81613166  0.90657811  0.01292446  1
  Te  Te44  1  0.10634635  0.69679280  0.51292446  1
  Te  Te45  1  0.39365365  0.40657811  0.09044644  1
  Te  Te46  1  0.09044644  0.90657811  0.39365365  1
  Te  Te47  1  0.40955356  0.10634635  0.59342189  1
  Te  Te48  1  0.09044644  0.18386834  0.19679280  1
  Te  Te49  1  0.48707554  0.68386834  0.09342189  1
  Te  Te50  1  0.81613166  0.90955356  0.30320720  1
  Te  Te51  1  0.10634635  0.40955356  0.09342189  1
  Te  Te52  1  0.39365365  0.98707554  0.80320720  1
  Te  Te53  1  0.59342189  0.60634635  0.40955356  1
  Te  Te54  1  0.90657811  0.81613166  0.51292446  1
  Te  Te55  1  0.80320720  0.31613166  0.90955356  1
  Te  Te56  1  0.40657811  0.39365365  0.59044644  1
  Te  Te57  1  0.09342189  0.18386834  0.48707554  1
  Te  Te58  1  0.19679280  0.68386834  0.09044644  1
  Te  Te59  1  0.18386834  0.09044644  0.69679280  1
  Te  Te60  1  0.60634635  0.01292446  0.19679280  1
  Te  Te61  1  0.89365365  0.59044644  0.90657811  1
  Te  Te62  1  0.51292446  0.31613166  0.90657811  1
  Te  Te63  1  0.59044644  0.89365365  0.40657811  1
  Te  Te64  1  0.90955356  0.81613166  0.80320720  1
  Te  Te65  1  0.90955356  0.09342189  0.60634635  1
  Te  Te66  1  0.89365365  0.30320720  0.48707554  1
  Te  Te67  1  0.18386834  0.09342189  0.98707554  1
  Te  Te68  1  0.60634635  0.59342189  0.90955356  1
  Te  Te69  1  0.40657811  0.01292446  0.31613166  1
  Te  Te70  1  0.30320720  0.40955356  0.81613166  1
  Te  Te71  1  0.19679280  0.51292446  0.60634635  1
  Te  Te72  1  0.90657811  0.09044644  0.89365365  1
  Te  Te73  1  0.68386834  0.19679280  0.59044644  1
  Te  Te74  1  0.48707554  0.80320720  0.89365365  1
  Te  Te75  1  0.01292446  0.40657811  0.81613166  1
  Te  Te76  1  0.40955356  0.30320720  0.31613166  1
  Te  Te77  1  0.01292446  0.60634635  0.69679280  1
  Te  Te78  1  0.68386834  0.48707554  0.59342189  1
  Te  Te79  1  0.30320720  0.89365365  0.98707554  1
