# generated using pymatgen
data_Li3H3Rh
_symmetry_space_group_name_H-M   'P 1'
_cell_length_a   5.21750380
_cell_length_b   5.21750381
_cell_length_c   5.20601116
_cell_angle_alpha   91.07298897
_cell_angle_beta   91.07298899
_cell_angle_gamma   112.87409367
_symmetry_Int_Tables_number   1
_chemical_formula_structural   Li3H3Rh
_chemical_formula_sum   'Li6 H6 Rh2'
_cell_volume   130.50024095
_cell_formula_units_Z   2
loop_
 _symmetry_equiv_pos_site_id
 _symmetry_equiv_pos_as_xyz
  1  'x, y, z'
loop_
 _atom_site_type_symbol
 _atom_site_label
 _atom_site_symmetry_multiplicity
 _atom_site_fract_x
 _atom_site_fract_y
 _atom_site_fract_z
 _atom_site_occupancy
  Li  Li0  1  0.63503966  0.63503966  0.34240250  1
  Li  Li1  1  0.17418183  0.82581817  0.50000000  1
  Li  Li2  1  0.82581817  0.17418183  0.50000000  1
  Li  Li3  1  0.27100107  0.72899893  0.00000000  1
  Li  Li4  1  0.72899893  0.27100107  0.00000000  1
  Li  Li5  1  0.36496034  0.36496034  0.65759750  1
  H  H6  1  0.91248120  0.91248120  0.18025842  1
  H  H7  1  0.80181520  0.52450464  0.66477402  1
  H  H8  1  0.52450464  0.80181520  0.66477402  1
  H  H9  1  0.19818480  0.47549536  0.33522598  1
  H  H10  1  0.47549536  0.19818480  0.33522598  1
  H  H11  1  0.08751880  0.08751880  0.81974158  1
  Rh  Rh12  1  0.78698290  0.78698290  0.85754409  1
  Rh  Rh13  1  0.21301710  0.21301710  0.14245591  1
