# generated using pymatgen
data_TiSnPt2
_symmetry_space_group_name_H-M   'P 1'
_cell_length_a   3.27267129
_cell_length_b   3.27267128
_cell_length_c   8.24335199
_cell_angle_alpha   78.55052849
_cell_angle_beta   78.55052853
_cell_angle_gamma   60.00000003
_symmetry_Int_Tables_number   1
_chemical_formula_structural   TiSnPt2
_chemical_formula_sum   'Ti1 Sn1 Pt2'
_cell_volume   74.42521289
_cell_formula_units_Z   1
loop_
 _symmetry_equiv_pos_site_id
 _symmetry_equiv_pos_as_xyz
  1  'x, y, z'
loop_
 _atom_site_type_symbol
 _atom_site_label
 _atom_site_symmetry_multiplicity
 _atom_site_fract_x
 _atom_site_fract_y
 _atom_site_fract_z
 _atom_site_occupancy
  Sn  Sn0  1  0.50000000  0.50000000  0.50000000  1
  Pt  Pt1  1  0.25928669  0.25928669  0.22214093  1
  Pt  Pt2  1  0.74071331  0.74071331  0.77785907  1
  Ti  Ti3  1  0.00000000  0.00000000  0.00000000  1
