# generated using pymatgen
data_Mg3Ta3CrN8
_symmetry_space_group_name_H-M   'P 1'
_cell_length_a   6.11094903
_cell_length_b   6.11101295
_cell_length_c   6.20140029
_cell_angle_alpha   119.51929576
_cell_angle_beta   89.99940524
_cell_angle_gamma   120.00058134
_symmetry_Int_Tables_number   1
_chemical_formula_structural   Mg3Ta3CrN8
_chemical_formula_sum   'Mg3 Ta3 Cr1 N8'
_cell_volume   164.93493565
_cell_formula_units_Z   1
loop_
 _symmetry_equiv_pos_site_id
 _symmetry_equiv_pos_as_xyz
  1  'x, y, z'
loop_
 _atom_site_type_symbol
 _atom_site_label
 _atom_site_symmetry_multiplicity
 _atom_site_fract_x
 _atom_site_fract_y
 _atom_site_fract_z
 _atom_site_occupancy
  Mg  Mg0  1  0.00000000  0.00000000  0.00000000  1
  Mg  Mg1  1  0.00000000  0.50000000  0.00000000  1
  Mg  Mg2  1  0.50000000  0.50000000  0.00000000  1
  Ta  Ta3  1  0.50000000  0.00000000  0.50000000  1
  Ta  Ta4  1  0.50000000  0.50000000  0.50000000  1
  Ta  Ta5  1  -0.00000000  0.50000000  0.50000000  1
  Cr  Cr6  1  0.00000000  0.00000000  0.50000000  1
  N  N7  1  0.25343324  0.50686434  0.26029766  1
  N  N8  1  0.74656676  0.49313566  0.73970234  1
  N  N9  1  0.76132674  0.52265109  0.27816726  1
  N  N10  1  0.23867326  0.47734891  0.72183274  1
  N  N11  1  0.76132554  0.01684022  0.27816584  1
  N  N12  1  0.23867446  0.98315978  0.72183416  1
  N  N13  1  0.25551805  0.01684086  0.27816639  1
  N  N14  1  0.74448195  0.98315914  0.72183361  1
