# generated using pymatgen
data_Ce4Th5Zn
_symmetry_space_group_name_H-M   'P 1'
_cell_length_a   3.50827374
_cell_length_b   3.50827374
_cell_length_c   23.49082715
_cell_angle_alpha   90.00000000
_cell_angle_beta   90.00000000
_cell_angle_gamma   90.00000000
_symmetry_Int_Tables_number   1
_chemical_formula_structural   Ce4Th5Zn
_chemical_formula_sum   'Ce4 Th5 Zn1'
_cell_volume   289.12473962
_cell_formula_units_Z   1
loop_
 _symmetry_equiv_pos_site_id
 _symmetry_equiv_pos_as_xyz
  1  'x, y, z'
loop_
 _atom_site_type_symbol
 _atom_site_label
 _atom_site_symmetry_multiplicity
 _atom_site_fract_x
 _atom_site_fract_y
 _atom_site_fract_z
 _atom_site_occupancy
  Ce  Ce0  1  0.00000000  0.00000000  0.19235891  1
  Ce  Ce1  1  0.00000000  0.00000000  0.39728925  1
  Ce  Ce2  1  0.00000000  0.00000000  0.60271075  1
  Ce  Ce3  1  0.00000000  0.00000000  0.80764109  1
  Th  Th4  1  0.50000000  0.50000000  0.08393695  1
  Th  Th5  1  0.50000000  0.50000000  0.29449448  1
  Th  Th6  1  0.50000000  0.50000000  0.50000000  1
  Th  Th7  1  0.50000000  0.50000000  0.70550552  1
  Th  Th8  1  0.50000000  0.50000000  0.91606305  1
  Zn  Zn9  1  0.00000000  0.00000000  0.00000000  1
