# generated using pymatgen
data_La4SiPbBr2
_symmetry_space_group_name_H-M   'P 1'
_cell_length_a   4.51950733
_cell_length_b   7.58445862
_cell_length_c   7.95332422
_cell_angle_alpha   69.95313534
_cell_angle_beta   89.99973969
_cell_angle_gamma   89.99971408
_symmetry_Int_Tables_number   1
_chemical_formula_structural   La4SiPbBr2
_chemical_formula_sum   'La4 Si1 Pb1 Br2'
_cell_volume   256.10657462
_cell_formula_units_Z   1
loop_
 _symmetry_equiv_pos_site_id
 _symmetry_equiv_pos_as_xyz
  1  'x, y, z'
loop_
 _atom_site_type_symbol
 _atom_site_label
 _atom_site_symmetry_multiplicity
 _atom_site_fract_x
 _atom_site_fract_y
 _atom_site_fract_z
 _atom_site_occupancy
  La  La0  1  0.00000300  0.73761268  0.73500785  1
  La  La1  1  0.99999600  0.26238882  0.26499065  1
  La  La2  1  0.50000200  0.72737363  0.27333776  1
  La  La3  1  0.49999700  0.27262737  0.72666124  1
  Si  Si4  1  0.00000050  0.49999400  0.50000450  1
  Pb  Pb5  1  0.49999900  0.50000150  0.99999950  1
  Br  Br6  1  0.00000000  0.00000100  0.99999900  1
  Br  Br7  1  0.50000000  0.00000100  0.49999900  1
