# generated using pymatgen
data_NaI
_symmetry_space_group_name_H-M   'P 1'
_cell_length_a   12.14969964
_cell_length_b   11.50713398
_cell_length_c   15.00000000
_cell_angle_alpha   90.00000000
_cell_angle_beta   90.00000000
_cell_angle_gamma   90.00000000
_symmetry_Int_Tables_number   1
_chemical_formula_structural   NaI
_chemical_formula_sum   'Na4 I4'
_cell_volume   2097.12332361
_cell_formula_units_Z   4
loop_
 _symmetry_equiv_pos_site_id
 _symmetry_equiv_pos_as_xyz
  1  'x, y, z'
loop_
 _atom_site_type_symbol
 _atom_site_label
 _atom_site_symmetry_multiplicity
 _atom_site_fract_x
 _atom_site_fract_y
 _atom_site_fract_z
 _atom_site_occupancy
  I  I0  1  0.00000000  0.80130670  0.50000000  1
  I  I1  1  0.50000000  0.80130670  0.50000000  1
  I  I2  1  0.50000000  0.30130670  0.50000000  1
  I  I3  1  0.00000000  0.30130670  0.50000000  1
  Na  Na4  1  0.00000000  0.05126030  0.50000000  1
  Na  Na5  1  0.50000000  0.05126030  0.50000000  1
  Na  Na6  1  0.50000000  0.55126030  0.50000000  1
  Na  Na7  1  0.00000000  0.55126030  0.50000000  1
