# generated using pymatgen
data_Li2TmHfS4
_symmetry_space_group_name_H-M   'P 1'
_cell_length_a   3.70150084
_cell_length_b   6.45861473
_cell_length_c   6.53753961
_cell_angle_alpha   109.04538853
_cell_angle_beta   90.00000000
_cell_angle_gamma   90.00000000
_symmetry_Int_Tables_number   1
_chemical_formula_structural   Li2TmHfS4
_chemical_formula_sum   'Li2 Tm1 Hf1 S4'
_cell_volume   147.73487012
_cell_formula_units_Z   1
loop_
 _symmetry_equiv_pos_site_id
 _symmetry_equiv_pos_as_xyz
  1  'x, y, z'
loop_
 _atom_site_type_symbol
 _atom_site_label
 _atom_site_symmetry_multiplicity
 _atom_site_fract_x
 _atom_site_fract_y
 _atom_site_fract_z
 _atom_site_occupancy
  Li  Li0  1  0.50000000  0.00000000  0.50000000  1
  Li  Li1  1  0.00000000  0.50000000  0.50000000  1
  Tm  Tm2  1  0.00000000  0.00000000  0.00000000  1
  Hf  Hf3  1  0.50000000  0.50000000  0.00000000  1
  S  S4  1  0.50000000  0.26154160  0.25092735  1
  S  S5  1  0.50000000  0.73845840  0.74907265  1
  S  S6  1  0.00000000  0.26111999  0.75374869  1
  S  S7  1  0.00000000  0.73888001  0.24625131  1
