# generated using pymatgen
data_ErTm(GaPt)2
_symmetry_space_group_name_H-M   'P 1'
_cell_length_a   4.45829561
_cell_length_b   4.45829560
_cell_length_c   6.76607724
_cell_angle_alpha   90.00000000
_cell_angle_beta   90.00000000
_cell_angle_gamma   119.99999998
_symmetry_Int_Tables_number   1
_chemical_formula_structural   ErTm(GaPt)2
_chemical_formula_sum   'Er1 Tm1 Ga2 Pt2'
_cell_volume   116.46764790
_cell_formula_units_Z   1
loop_
 _symmetry_equiv_pos_site_id
 _symmetry_equiv_pos_as_xyz
  1  'x, y, z'
loop_
 _atom_site_type_symbol
 _atom_site_label
 _atom_site_symmetry_multiplicity
 _atom_site_fract_x
 _atom_site_fract_y
 _atom_site_fract_z
 _atom_site_occupancy
  Er  Er0  1  0.00000000  0.00000000  0.50000000  1
  Tm  Tm1  1  0.00000000  0.00000000  0.00000000  1
  Ga  Ga2  1  0.33333333  0.66666667  0.75341289  1
  Ga  Ga3  1  0.66666667  0.33333333  0.24658711  1
  Pt  Pt4  1  0.33333333  0.66666667  0.24610814  1
  Pt  Pt5  1  0.66666667  0.33333333  0.75389186  1
