# generated using pymatgen
data_K2Au3
_symmetry_space_group_name_H-M   'P 1'
_cell_length_a   4.73475693
_cell_length_b   8.40025447
_cell_length_c   20.83617438
_cell_angle_alpha   90.00000000
_cell_angle_beta   90.00000000
_cell_angle_gamma   90.00000000
_symmetry_Int_Tables_number   1
_chemical_formula_structural   K2Au3
_chemical_formula_sum   'K4 Au6'
_cell_volume   828.72056128
_cell_formula_units_Z   2
loop_
 _symmetry_equiv_pos_site_id
 _symmetry_equiv_pos_as_xyz
  1  'x, y, z'
loop_
 _atom_site_type_symbol
 _atom_site_label
 _atom_site_symmetry_multiplicity
 _atom_site_fract_x
 _atom_site_fract_y
 _atom_site_fract_z
 _atom_site_occupancy
  K  K0  1  0.00000000  0.74576644  0.63007879  1
  K  K1  1  0.50000000  0.75423357  0.36992121  1
  K  K2  1  0.50000000  0.24576644  0.36992121  1
  K  K3  1  0.00000000  0.25423356  0.63007879  1
  Au  Au4  1  0.50000000  0.33436386  0.51591790  1
  Au  Au5  1  0.00000000  0.16563614  0.48408210  1
  Au  Au6  1  0.00000000  0.83436386  0.48408210  1
  Au  Au7  1  0.50000000  0.66563614  0.51591790  1
  Au  Au8  1  0.50000000  0.50000000  0.64004909  1
  Au  Au9  1  0.00000000  0.00000000  0.35995092  1
