# generated using pymatgen
data_NpMnCo4
_symmetry_space_group_name_H-M   'P 1'
_cell_length_a   4.79752847
_cell_length_b   4.79752861
_cell_length_c   7.99076259
_cell_angle_alpha   90.00000000
_cell_angle_beta   90.00000000
_cell_angle_gamma   119.99999900
_symmetry_Int_Tables_number   1
_chemical_formula_structural   NpMnCo4
_chemical_formula_sum   'Np2 Mn2 Co8'
_cell_volume   159.27734119
_cell_formula_units_Z   2
loop_
 _symmetry_equiv_pos_site_id
 _symmetry_equiv_pos_as_xyz
  1  'x, y, z'
loop_
 _atom_site_type_symbol
 _atom_site_label
 _atom_site_symmetry_multiplicity
 _atom_site_fract_x
 _atom_site_fract_y
 _atom_site_fract_z
 _atom_site_occupancy
  Np  Np0  1  0.33333300  0.66666700  0.41725622  1
  Np  Np1  1  0.66666700  0.33333300  0.58274378  1
  Mn  Mn2  1  0.66666700  0.33333300  0.95182288  1
  Mn  Mn3  1  0.33333300  0.66666700  0.04817712  1
  Co  Co4  1  0.00000000  0.00000000  0.50000000  1
  Co  Co5  1  0.00000000  0.00000000  0.00000000  1
  Co  Co6  1  0.83150774  0.16849226  0.23875623  1
  Co  Co7  1  0.83150774  0.66301548  0.23875623  1
  Co  Co8  1  0.33698452  0.16849226  0.23875623  1
  Co  Co9  1  0.16849226  0.83150774  0.76124377  1
  Co  Co10  1  0.16849226  0.33698452  0.76124377  1
  Co  Co11  1  0.66301548  0.83150774  0.76124377  1
