# generated using pymatgen
data_PdRh5
_symmetry_space_group_name_H-M   'P 1'
_cell_length_a   2.73113056
_cell_length_b   2.73113056
_cell_length_c   11.55498433
_cell_angle_alpha   90.00000000
_cell_angle_beta   90.00000000
_cell_angle_gamma   90.00000000
_symmetry_Int_Tables_number   1
_chemical_formula_structural   PdRh5
_chemical_formula_sum   'Pd1 Rh5'
_cell_volume   86.18948476
_cell_formula_units_Z   1
loop_
 _symmetry_equiv_pos_site_id
 _symmetry_equiv_pos_as_xyz
  1  'x, y, z'
loop_
 _atom_site_type_symbol
 _atom_site_label
 _atom_site_symmetry_multiplicity
 _atom_site_fract_x
 _atom_site_fract_y
 _atom_site_fract_z
 _atom_site_occupancy
  Pd  Pd0  1  0.50000000  0.50000000  0.50000000  1
  Rh  Rh1  1  0.00000000  0.00000000  0.67203606  1
  Rh  Rh2  1  0.50000000  0.50000000  0.83433451  1
  Rh  Rh3  1  0.00000000  0.00000000  0.00000000  1
  Rh  Rh4  1  0.50000000  0.50000000  0.16566549  1
  Rh  Rh5  1  0.00000000  0.00000000  0.32796394  1
