# generated using pymatgen
data_CrHgSe
_symmetry_space_group_name_H-M   'P 1'
_cell_length_a   6.91412459
_cell_length_b   6.91434388
_cell_length_c   3.44076110
_cell_angle_alpha   75.58893085
_cell_angle_beta   75.59600034
_cell_angle_gamma   28.81506896
_symmetry_Int_Tables_number   1
_chemical_formula_structural   CrHgSe
_chemical_formula_sum   'Cr1 Hg1 Se1'
_cell_volume   76.62135497
_cell_formula_units_Z   1
loop_
 _symmetry_equiv_pos_site_id
 _symmetry_equiv_pos_as_xyz
  1  'x, y, z'
loop_
 _atom_site_type_symbol
 _atom_site_label
 _atom_site_symmetry_multiplicity
 _atom_site_fract_x
 _atom_site_fract_y
 _atom_site_fract_z
 _atom_site_occupancy
  Cr  Cr0  1  0.94565242  0.94565242  0.05434758  1
  Hg  Hg1  1  0.66670375  0.66670375  0.33329625  1
  Se  Se2  1  0.38764383  0.38764383  0.61235617  1
