# generated using pymatgen
data_GdAl4Zn
_symmetry_space_group_name_H-M   'P 1'
_cell_length_a   5.49168598
_cell_length_b   5.49168598
_cell_length_c   5.49168598
_cell_angle_alpha   60.00000002
_cell_angle_beta   60.00000002
_cell_angle_gamma   60.00000001
_symmetry_Int_Tables_number   1
_chemical_formula_structural   GdAl4Zn
_chemical_formula_sum   'Gd1 Al4 Zn1'
_cell_volume   117.11218676
_cell_formula_units_Z   1
loop_
 _symmetry_equiv_pos_site_id
 _symmetry_equiv_pos_as_xyz
  1  'x, y, z'
loop_
 _atom_site_type_symbol
 _atom_site_label
 _atom_site_symmetry_multiplicity
 _atom_site_fract_x
 _atom_site_fract_y
 _atom_site_fract_z
 _atom_site_occupancy
  Zn  Zn0  1  0.00000000  0.00000000  0.00000000  1
  Gd  Gd1  1  0.25000000  0.25000000  0.25000000  1
  Al  Al2  1  0.62459787  0.62459687  0.12620839  1
  Al  Al3  1  0.62459787  0.12620839  0.62459687  1
  Al  Al4  1  0.62459787  0.62459687  0.62459687  1
  Al  Al5  1  0.12620939  0.62459687  0.62459687  1
