# generated using pymatgen
data_Rb2Ho(BO3)2
_symmetry_space_group_name_H-M   'P 1'
_cell_length_a   5.54795505
_cell_length_b   5.54795558
_cell_length_c   7.17499281
_cell_angle_alpha   67.24897574
_cell_angle_beta   67.24896315
_cell_angle_gamma   60.00033027
_symmetry_Int_Tables_number   1
_chemical_formula_structural   Rb2Ho(BO3)2
_chemical_formula_sum   'Rb2 Ho1 B2 O6'
_cell_volume   171.12919391
_cell_formula_units_Z   1
loop_
 _symmetry_equiv_pos_site_id
 _symmetry_equiv_pos_as_xyz
  1  'x, y, z'
loop_
 _atom_site_type_symbol
 _atom_site_label
 _atom_site_symmetry_multiplicity
 _atom_site_fract_x
 _atom_site_fract_y
 _atom_site_fract_z
 _atom_site_occupancy
  O  O0  1  0.74096326  0.30962357  0.20854916  1
  O  O1  1  0.69037676  0.25903653  0.79145064  1
  O  O2  1  0.25908960  0.25908932  0.79126572  1
  O  O3  1  0.25903674  0.69037643  0.79145084  1
  O  O4  1  0.30962324  0.74096347  0.20854936  1
  O  O5  1  0.74091040  0.74091068  0.20873428  1
  B  B6  1  0.59772122  0.59772153  0.20695165  1
  B  B7  1  0.40227878  0.40227847  0.79304835  1
  Ho  Ho8  1  0.00000000  0.00000000  0.00000000  1
  Rb  Rb9  1  0.79129187  0.79129179  0.62606773  1
  Rb  Rb10  1  0.20870813  0.20870821  0.37393227  1
