# generated using pymatgen
data_PuTlCo2O5
_symmetry_space_group_name_H-M   'P 1'
_cell_length_a   4.94536901
_cell_length_b   6.01918367
_cell_length_c   5.93846302
_cell_angle_alpha   120.45067584
_cell_angle_beta   114.60654112
_cell_angle_gamma   90.00000000
_symmetry_Int_Tables_number   1
_chemical_formula_structural   PuTlCo2O5
_chemical_formula_sum   'Pu1 Tl1 Co2 O5'
_cell_volume   133.43336362
_cell_formula_units_Z   1
loop_
 _symmetry_equiv_pos_site_id
 _symmetry_equiv_pos_as_xyz
  1  'x, y, z'
loop_
 _atom_site_type_symbol
 _atom_site_label
 _atom_site_symmetry_multiplicity
 _atom_site_fract_x
 _atom_site_fract_y
 _atom_site_fract_z
 _atom_site_occupancy
  Pu  Pu0  1  0.50000000  0.00000000  0.00000000  1
  Tl  Tl1  1  0.00000000  0.50000000  0.00000000  1
  Co  Co2  1  0.22299963  0.22299963  0.44599926  1
  Co  Co3  1  0.77700037  0.77700037  0.55400074  1
  O  O4  1  0.66351384  0.92913099  0.32702667  1
  O  O5  1  0.33648616  0.07086901  0.67297333  1
  O  O6  1  0.33648616  0.60210532  0.67297333  1
  O  O7  1  0.66351384  0.39789468  0.32702667  1
  O  O8  1  0.00000000  0.00000000  0.00000000  1
