# generated using pymatgen
data_MgInN2
_symmetry_space_group_name_H-M   'P 1'
_cell_length_a   6.43061042
_cell_length_b   6.43061042
_cell_length_c   6.43061042
_cell_angle_alpha   30.78115580
_cell_angle_beta   30.78115577
_cell_angle_gamma   30.78115577
_symmetry_Int_Tables_number   1
_chemical_formula_structural   MgInN2
_chemical_formula_sum   'Mg1 In1 N2'
_cell_volume   61.76261902
_cell_formula_units_Z   1
loop_
 _symmetry_equiv_pos_site_id
 _symmetry_equiv_pos_as_xyz
  1  'x, y, z'
loop_
 _atom_site_type_symbol
 _atom_site_label
 _atom_site_symmetry_multiplicity
 _atom_site_fract_x
 _atom_site_fract_y
 _atom_site_fract_z
 _atom_site_occupancy
  Mg  Mg0  1  0.50000000  0.50000000  0.50000000  1
  N  N1  1  0.89211942  0.89211942  0.89211942  1
  N  N2  1  0.10788058  0.10788058  0.10788058  1
  In  In3  1  0.00000000  0.00000000  0.00000000  1
