# generated using pymatgen
data_HoZn2Pt5
_symmetry_space_group_name_H-M   'P 1'
_cell_length_a   3.76222525
_cell_length_b   6.55335537
_cell_length_c   6.55335537
_cell_angle_alpha   66.27362448
_cell_angle_beta   73.31882985
_cell_angle_gamma   73.31882985
_symmetry_Int_Tables_number   1
_chemical_formula_structural   HoZn2Pt5
_chemical_formula_sum   'Ho1 Zn2 Pt5'
_cell_volume   138.95530221
_cell_formula_units_Z   1
loop_
 _symmetry_equiv_pos_site_id
 _symmetry_equiv_pos_as_xyz
  1  'x, y, z'
loop_
 _atom_site_type_symbol
 _atom_site_label
 _atom_site_symmetry_multiplicity
 _atom_site_fract_x
 _atom_site_fract_y
 _atom_site_fract_z
 _atom_site_occupancy
  Ho  Ho0  1  0.00000000  0.00000000  0.00000000  1
  Zn  Zn1  1  0.75493157  0.74506843  0.74506843  1
  Zn  Zn2  1  0.24506843  0.25493157  0.25493157  1
  Pt  Pt3  1  0.00000000  0.50000000  0.50000000  1
  Pt  Pt4  1  0.63594387  0.56967900  0.15843326  1
  Pt  Pt5  1  0.36405613  0.43032100  0.84156674  1
  Pt  Pt6  1  0.36405613  0.84156674  0.43032100  1
  Pt  Pt7  1  0.63594387  0.15843326  0.56967900  1
