# generated using pymatgen
data_LuSb3
_symmetry_space_group_name_H-M   'P 1'
_cell_length_a   4.35206598
_cell_length_b   4.46349657
_cell_length_c   6.14680830
_cell_angle_alpha   90.00000000
_cell_angle_beta   90.00000000
_cell_angle_gamma   90.00000000
_symmetry_Int_Tables_number   1
_chemical_formula_structural   LuSb3
_chemical_formula_sum   'Lu1 Sb3'
_cell_volume   119.40440403
_cell_formula_units_Z   1
loop_
 _symmetry_equiv_pos_site_id
 _symmetry_equiv_pos_as_xyz
  1  'x, y, z'
loop_
 _atom_site_type_symbol
 _atom_site_label
 _atom_site_symmetry_multiplicity
 _atom_site_fract_x
 _atom_site_fract_y
 _atom_site_fract_z
 _atom_site_occupancy
  Sb  Sb0  1  0.50000000  0.27885264  0.00000000  1
  Sb  Sb1  1  0.50000000  0.42514718  0.50000000  1
  Sb  Sb2  1  0.00000000  0.86120776  0.50000000  1
  Lu  Lu3  1  0.00000000  0.76812542  0.00000000  1
