# generated using pymatgen
data_Y3(Zn2Pd)2
_symmetry_space_group_name_H-M   'P 1'
_cell_length_a   4.43808196
_cell_length_b   5.76296040
_cell_length_c   8.48170764
_cell_angle_alpha   112.74074287
_cell_angle_beta   90.00000000
_cell_angle_gamma   112.64698524
_symmetry_Int_Tables_number   1
_chemical_formula_structural   Y3(Zn2Pd)2
_chemical_formula_sum   'Y3 Zn4 Pd2'
_cell_volume   181.79712419
_cell_formula_units_Z   1
loop_
 _symmetry_equiv_pos_site_id
 _symmetry_equiv_pos_as_xyz
  1  'x, y, z'
loop_
 _atom_site_type_symbol
 _atom_site_label
 _atom_site_symmetry_multiplicity
 _atom_site_fract_x
 _atom_site_fract_y
 _atom_site_fract_z
 _atom_site_occupancy
  Y  Y0  1  0.68055128  0.36110256  0.64823711  1
  Y  Y1  1  0.00000000  0.00000000  0.00000000  1
  Y  Y2  1  0.31944872  0.63889744  0.35176289  1
  Zn  Zn3  1  0.71935967  0.43871834  0.05052405  1
  Zn  Zn4  1  0.28064033  0.56128166  0.94947595  1
  Zn  Zn5  1  0.96838391  0.93676882  0.62821493  1
  Zn  Zn6  1  0.03161609  0.06323118  0.37178507  1
  Pd  Pd7  1  0.59633417  0.19266935  0.26361653  1
  Pd  Pd8  1  0.40366583  0.80733065  0.73638347  1
