# generated using pymatgen
data_TmAl4
_symmetry_space_group_name_H-M   'P 1'
_cell_length_a   4.46469909
_cell_length_b   6.13953744
_cell_length_c   7.79851626
_cell_angle_alpha   113.18086761
_cell_angle_beta   106.63376230
_cell_angle_gamma   89.99999841
_symmetry_Int_Tables_number   1
_chemical_formula_structural   TmAl4
_chemical_formula_sum   'Tm2 Al8'
_cell_volume   186.73838858
_cell_formula_units_Z   2
loop_
 _symmetry_equiv_pos_site_id
 _symmetry_equiv_pos_as_xyz
  1  'x, y, z'
loop_
 _atom_site_type_symbol
 _atom_site_label
 _atom_site_symmetry_multiplicity
 _atom_site_fract_x
 _atom_site_fract_y
 _atom_site_fract_z
 _atom_site_occupancy
  Tm  Tm0  1  0.88960619  0.13960619  0.77921237  1
  Tm  Tm1  1  0.11039381  0.86039381  0.22078763  1
  Al  Al2  1  0.11313336  0.36313336  0.22626671  1
  Al  Al3  1  0.88686664  0.63686664  0.77373329  1
  Al  Al4  1  0.50000000  -0.00000000  0.00000000  1
  Al  Al5  1  0.50000000  0.50000000  0.00000000  1
  Al  Al6  1  0.69878799  0.22833375  0.39757597  1
  Al  Al7  1  0.30121201  0.77166625  0.60242403  1
  Al  Al8  1  0.30121201  0.33075778  0.60242403  1
  Al  Al9  1  0.69878799  0.66924222  0.39757597  1
