# generated using pymatgen
data_BaZr3
_symmetry_space_group_name_H-M   'P 1'
_cell_length_a   6.97057362
_cell_length_b   6.97057362
_cell_length_c   5.42626248
_cell_angle_alpha   90.00000000
_cell_angle_beta   90.00000000
_cell_angle_gamma   119.99999997
_symmetry_Int_Tables_number   1
_chemical_formula_structural   BaZr3
_chemical_formula_sum   'Ba2 Zr6'
_cell_volume   228.33288596
_cell_formula_units_Z   2
loop_
 _symmetry_equiv_pos_site_id
 _symmetry_equiv_pos_as_xyz
  1  'x, y, z'
loop_
 _atom_site_type_symbol
 _atom_site_label
 _atom_site_symmetry_multiplicity
 _atom_site_fract_x
 _atom_site_fract_y
 _atom_site_fract_z
 _atom_site_occupancy
  Ba  Ba0  1  0.33333333  0.66666667  0.25000000  1
  Ba  Ba1  1  0.66666667  0.33333333  0.75000000  1
  Zr  Zr2  1  0.85228810  0.70457619  0.25000000  1
  Zr  Zr3  1  0.29542381  0.14771190  0.25000000  1
  Zr  Zr4  1  0.85228810  0.14771190  0.25000000  1
  Zr  Zr5  1  0.14771190  0.29542381  0.75000000  1
  Zr  Zr6  1  0.70457619  0.85228810  0.75000000  1
  Zr  Zr7  1  0.14771190  0.85228810  0.75000000  1
