# generated using pymatgen
data_Mn(PdO3)2
_symmetry_space_group_name_H-M   'P 1'
_cell_length_a   4.96527123
_cell_length_b   5.27444876
_cell_length_c   5.27444876
_cell_angle_alpha   120.00000008
_cell_angle_beta   90.00000000
_cell_angle_gamma   90.00000000
_symmetry_Int_Tables_number   1
_chemical_formula_structural   Mn(PdO3)2
_chemical_formula_sum   'Mn1 Pd2 O6'
_cell_volume   119.62660117
_cell_formula_units_Z   1
loop_
 _symmetry_equiv_pos_site_id
 _symmetry_equiv_pos_as_xyz
  1  'x, y, z'
loop_
 _atom_site_type_symbol
 _atom_site_label
 _atom_site_symmetry_multiplicity
 _atom_site_fract_x
 _atom_site_fract_y
 _atom_site_fract_z
 _atom_site_occupancy
  Mn  Mn0  1  0.50000000  0.00000000  0.00000000  1
  Pd  Pd1  1  0.49992600  0.66666667  0.33333333  1
  Pd  Pd2  1  0.50007400  0.33333333  0.66666667  1
  O  O3  1  0.30295739  0.67661876  0.67669218  1
  O  O4  1  0.30295739  0.00007342  0.32338124  1
  O  O5  1  0.30295739  0.32330782  0.99992658  1
  O  O6  1  0.69704261  0.32338124  0.32330782  1
  O  O7  1  0.69704261  0.99992658  0.67661876  1
  O  O8  1  0.69704261  0.67669218  0.00007342  1
