# generated using pymatgen
data_Nd8GeSb5
_symmetry_space_group_name_H-M   'P 1'
_cell_length_a   8.19557640
_cell_length_b   8.19557705
_cell_length_c   8.19557674
_cell_angle_alpha   109.75082888
_cell_angle_beta   108.91344652
_cell_angle_gamma   109.75082575
_symmetry_Int_Tables_number   1
_chemical_formula_structural   Nd8GeSb5
_chemical_formula_sum   'Nd8 Ge1 Sb5'
_cell_volume   423.72668767
_cell_formula_units_Z   1
loop_
 _symmetry_equiv_pos_site_id
 _symmetry_equiv_pos_as_xyz
  1  'x, y, z'
loop_
 _atom_site_type_symbol
 _atom_site_label
 _atom_site_symmetry_multiplicity
 _atom_site_fract_x
 _atom_site_fract_y
 _atom_site_fract_z
 _atom_site_occupancy
  Nd  Nd0  1  0.12718836  0.73864915  0.00617033  1
  Nd  Nd1  1  0.99382967  0.12101903  0.73247982  1
  Nd  Nd2  1  0.77241221  0.25317064  0.37960477  1
  Nd  Nd3  1  0.62039523  0.39280744  0.87356586  1
  Nd  Nd4  1  0.48075843  0.60719256  0.22758779  1
  Nd  Nd5  1  0.61146079  0.87898097  0.87281164  1
  Nd  Nd6  1  0.26752018  0.26135085  0.38853921  1
  Nd  Nd7  1  0.12643414  0.74682936  0.51924157  1
  Ge  Ge8  1  0.25000000  0.50000000  0.75000000  1
  Sb  Sb9  1  0.99417591  0.36957237  0.12117454  1
  Sb  Sb10  1  0.87882546  0.87300137  0.24839683  1
  Sb  Sb11  1  0.75160317  0.63042763  0.62460354  1
  Sb  Sb12  1  0.50000000  0.00000000  0.50000000  1
  Sb  Sb13  1  0.37539646  0.12699863  0.00582409  1
