# generated using pymatgen
data_Tm12Co6Hg
_symmetry_space_group_name_H-M   'P 1'
_cell_length_a   8.21328439
_cell_length_b   8.21328439
_cell_length_c   8.21328439
_cell_angle_alpha   109.47122066
_cell_angle_beta   109.47122062
_cell_angle_gamma   109.47122060
_symmetry_Int_Tables_number   1
_chemical_formula_structural   Tm12Co6Hg
_chemical_formula_sum   'Tm12 Co6 Hg1'
_cell_volume   426.50948311
_cell_formula_units_Z   1
loop_
 _symmetry_equiv_pos_site_id
 _symmetry_equiv_pos_as_xyz
  1  'x, y, z'
loop_
 _atom_site_type_symbol
 _atom_site_label
 _atom_site_symmetry_multiplicity
 _atom_site_fract_x
 _atom_site_fract_y
 _atom_site_fract_z
 _atom_site_occupancy
  Tm  Tm0  1  0.30096466  0.10720884  0.80624418  1
  Tm  Tm1  1  0.30096466  0.49472048  0.19375582  1
  Tm  Tm2  1  0.69903534  0.50527952  0.80624418  1
  Tm  Tm3  1  0.69903534  0.89279116  0.19375582  1
  Tm  Tm4  1  0.10720884  0.80624418  0.30096466  1
  Tm  Tm5  1  0.49472048  0.19375582  0.30096466  1
  Tm  Tm6  1  0.50527952  0.80624418  0.69903534  1
  Tm  Tm7  1  0.89279116  0.19375582  0.69903534  1
  Tm  Tm8  1  0.80624418  0.30096466  0.10720884  1
  Tm  Tm9  1  0.19375582  0.30096466  0.49472048  1
  Tm  Tm10  1  0.80624418  0.69903534  0.50527952  1
  Tm  Tm11  1  0.19375582  0.69903534  0.89279116  1
  Co  Co12  1  0.38549435  0.50000000  0.88549435  1
  Co  Co13  1  0.61450565  0.50000000  0.11450565  1
  Co  Co14  1  0.50000000  0.88549435  0.38549435  1
  Co  Co15  1  0.50000000  0.11450565  0.61450565  1
  Co  Co16  1  0.88549435  0.38549435  0.50000000  1
  Co  Co17  1  0.11450565  0.61450565  0.50000000  1
  Hg  Hg18  1  0.00000000  0.00000000  0.00000000  1
