# generated using pymatgen
data_Li2FeB
_symmetry_space_group_name_H-M   'P 1'
_cell_length_a   6.57271116
_cell_length_b   6.57271116
_cell_length_c   5.07788660
_cell_angle_alpha   49.66995394
_cell_angle_beta   49.66995394
_cell_angle_gamma   90.00000000
_symmetry_Int_Tables_number   1
_chemical_formula_structural   Li2FeB
_chemical_formula_sum   'Li4 Fe2 B2'
_cell_volume   88.37298251
_cell_formula_units_Z   2
loop_
 _symmetry_equiv_pos_site_id
 _symmetry_equiv_pos_as_xyz
  1  'x, y, z'
loop_
 _atom_site_type_symbol
 _atom_site_label
 _atom_site_symmetry_multiplicity
 _atom_site_fract_x
 _atom_site_fract_y
 _atom_site_fract_z
 _atom_site_occupancy
  B  B0  1  0.50000000  0.50000000  0.00000000  1
  B  B1  1  0.25000000  0.75000000  0.50000000  1
  Fe  Fe2  1  0.00000000  0.00000000  0.00000000  1
  Fe  Fe3  1  0.75000000  0.25000000  0.50000000  1
  Li  Li4  1  0.57148324  0.12500000  0.25000000  1
  Li  Li5  1  0.17851676  0.62500000  0.25000000  1
  Li  Li6  1  0.37500000  0.42851676  0.75000000  1
  Li  Li7  1  0.87500000  0.82148324  0.75000000  1
