# generated using pymatgen
data_Cu(SbO3)2
_symmetry_space_group_name_H-M   'P 1'
_cell_length_a   4.54018671
_cell_length_b   8.83479181
_cell_length_c   8.83479125
_cell_angle_alpha   120.00000161
_cell_angle_beta   90.00000649
_cell_angle_gamma   90.00000000
_symmetry_Int_Tables_number   1
_chemical_formula_structural   Cu(SbO3)2
_chemical_formula_sum   'Cu3 Sb6 O18'
_cell_volume   306.90004351
_cell_formula_units_Z   3
loop_
 _symmetry_equiv_pos_site_id
 _symmetry_equiv_pos_as_xyz
  1  'x, y, z'
loop_
 _atom_site_type_symbol
 _atom_site_label
 _atom_site_symmetry_multiplicity
 _atom_site_fract_x
 _atom_site_fract_y
 _atom_site_fract_z
 _atom_site_occupancy
  Cu  Cu0  1  0.49622671  0.33333300  0.66666700  1
  Cu  Cu1  1  0.00000000  0.00000000  0.00000000  1
  Cu  Cu2  1  0.50377329  0.66666700  0.33333300  1
  Sb  Sb3  1  1.00000000  0.64898944  0.64898944  1
  Sb  Sb4  1  0.50000000  0.31500441  0.31500441  1
  Sb  Sb5  1  -0.00000000  0.00000000  0.35101056  1
  Sb  Sb6  1  0.50000000  0.68499559  0.00000000  1
  Sb  Sb7  1  0.50000000  1.00000000  0.68499559  1
  Sb  Sb8  1  0.00000000  0.35101056  1.00000000  1
  O  O9  1  0.23579209  0.77425636  0.87850787  1
  O  O10  1  0.73636022  0.56013421  0.77649006  1
  O  O11  1  0.25312657  0.43246713  0.54034448  1
  O  O12  1  0.25312657  0.45965452  0.89212165  1
  O  O13  1  0.73636022  0.21635586  0.43986579  1
  O  O14  1  0.23579209  0.10425052  0.22574264  1
  O  O15  1  0.73636022  0.22350994  0.78364414  1
  O  O16  1  0.76420791  0.89574948  0.12149213  1
  O  O17  1  0.25312757  0.10787835  0.56753287  1
  O  O18  1  0.23579209  0.12149213  0.89574948  1
  O  O19  1  0.26363978  0.78364414  0.22350994  1
  O  O20  1  0.74687343  0.89212165  0.45965552  1
  O  O21  1  0.74687343  0.56753287  0.10787835  1
  O  O22  1  0.26363978  0.77649106  0.56013421  1
  O  O23  1  0.76420791  0.87850787  0.77425736  1
  O  O24  1  0.26363978  0.43986579  0.21635586  1
  O  O25  1  0.74687243  0.54034548  0.43246713  1
  O  O26  1  0.76420791  0.22574364  0.10425052  1
