# generated using pymatgen
data_Ga2NiO4
_symmetry_space_group_name_H-M   'P 1'
_cell_length_a   5.95238780
_cell_length_b   10.36005409
_cell_length_c   5.95446434
_cell_angle_alpha   74.14422790
_cell_angle_beta   60.00232033
_cell_angle_gamma   73.30084207
_symmetry_Int_Tables_number   1
_chemical_formula_structural   Ga2NiO4
_chemical_formula_sum   'Ga8 Ni4 O16'
_cell_volume   300.85788431
_cell_formula_units_Z   4
loop_
 _symmetry_equiv_pos_site_id
 _symmetry_equiv_pos_as_xyz
  1  'x, y, z'
loop_
 _atom_site_type_symbol
 _atom_site_label
 _atom_site_symmetry_multiplicity
 _atom_site_fract_x
 _atom_site_fract_y
 _atom_site_fract_z
 _atom_site_occupancy
  Ga  Ga0  1  0.57628526  0.81248824  0.06278345  1
  Ga  Ga1  1  0.04871127  0.31249990  0.56211657  1
  Ga  Ga2  1  0.05060499  0.31046487  0.06375847  1
  Ga  Ga3  1  0.57436128  0.81453418  0.56117666  1
  Ga  Ga4  1  0.07473801  0.81057037  0.56447470  1
  Ga  Ga5  1  0.55026532  0.31446020  0.06050300  1
  Ga  Ga6  1  0.31262262  0.06249202  0.31248515  1
  Ga  Ga7  1  0.81238743  0.56249609  0.81255305  1
  Ni  Ni8  1  0.48756233  0.50251389  0.50290908  1
  Ni  Ni9  1  0.61821457  0.12248437  0.62182111  1
  Ni  Ni10  1  0.00701616  0.00249200  0.00335021  1
  Ni  Ni11  1  0.13717942  0.62248653  0.12230620  1
  O  O12  1  0.70703435  0.91928111  0.69766591  1
  O  O13  1  0.17624586  0.41918807  0.19707132  1
  O  O14  1  0.93292511  0.69093751  0.91895184  1
  O  O15  1  0.41179605  0.19783706  0.41681731  1
  O  O16  1  0.21342097  0.92718463  0.20811308  1
  O  O17  1  0.69198546  0.43404079  0.70609103  1
  O  O18  1  0.95736587  0.19090760  0.41839320  1
  O  O19  1  0.47318454  0.69786799  0.91750644  1
  O  O20  1  0.44859465  0.70580472  0.42791419  1
  O  O21  1  0.91816356  0.20571520  0.92717220  1
  O  O22  1  0.41222296  0.19102201  0.96470020  1
  O  O23  1  0.93179830  0.69112397  0.46518684  1
  O  O24  1  0.21288245  0.93402339  0.66026500  1
  O  O25  1  0.69303075  0.43387556  0.15992983  1
  O  O26  1  0.66779825  0.93403226  0.20648733  1
  O  O27  1  0.15160120  0.42717646  0.70749661  1
