# generated using pymatgen
data_PuPaNbO6
_symmetry_space_group_name_H-M   'P 1'
_cell_length_a   5.63950316
_cell_length_b   5.63950316
_cell_length_c   9.76603185
_cell_angle_alpha   90.00000000
_cell_angle_beta   90.00000000
_cell_angle_gamma   120.00000001
_symmetry_Int_Tables_number   1
_chemical_formula_structural   PuPaNbO6
_chemical_formula_sum   'Pu2 Pa2 Nb2 O12'
_cell_volume   268.98648301
_cell_formula_units_Z   2
loop_
 _symmetry_equiv_pos_site_id
 _symmetry_equiv_pos_as_xyz
  1  'x, y, z'
loop_
 _atom_site_type_symbol
 _atom_site_label
 _atom_site_symmetry_multiplicity
 _atom_site_fract_x
 _atom_site_fract_y
 _atom_site_fract_z
 _atom_site_occupancy
  Pu  Pu0  1  0.00000000  0.00000000  0.00000000  1
  Pu  Pu1  1  0.00000000  0.00000000  0.50000000  1
  Pa  Pa2  1  0.33333333  0.66666667  0.25000000  1
  Pa  Pa3  1  0.66666667  0.33333333  0.75000000  1
  Nb  Nb4  1  0.66666667  0.33333333  0.25000000  1
  Nb  Nb5  1  0.33333333  0.66666667  0.75000000  1
  O  O6  1  0.65832196  0.63983296  0.13687963  1
  O  O7  1  0.98151100  0.34167704  0.13687963  1
  O  O8  1  0.34167804  0.98151200  0.63687963  1
  O  O9  1  0.01848900  0.65832296  0.86312037  1
  O  O10  1  0.36016604  0.34167704  0.36312037  1
  O  O11  1  0.98151100  0.63983296  0.36312037  1
  O  O12  1  0.63983396  0.98151200  0.86312037  1
  O  O13  1  0.65832196  0.01848800  0.36312037  1
  O  O14  1  0.01848900  0.36016704  0.63687963  1
  O  O15  1  0.36016604  0.01848800  0.13687963  1
  O  O16  1  0.63983396  0.65832296  0.63687963  1
  O  O17  1  0.34167804  0.36016704  0.86312037  1
