# generated using pymatgen
data_CdWBrO
_symmetry_space_group_name_H-M   'P 1'
_cell_length_a   3.36450138
_cell_length_b   5.92076695
_cell_length_c   11.87662232
_cell_angle_alpha   90.00000000
_cell_angle_beta   90.51123081
_cell_angle_gamma   90.00000000
_symmetry_Int_Tables_number   1
_chemical_formula_structural   CdWBrO
_chemical_formula_sum   'Cd2 W2 Br2 O2'
_cell_volume   236.57798864
_cell_formula_units_Z   2
loop_
 _symmetry_equiv_pos_site_id
 _symmetry_equiv_pos_as_xyz
  1  'x, y, z'
loop_
 _atom_site_type_symbol
 _atom_site_label
 _atom_site_symmetry_multiplicity
 _atom_site_fract_x
 _atom_site_fract_y
 _atom_site_fract_z
 _atom_site_occupancy
  Cd  Cd0  1  0.96100440  0.00000000  0.53835296  1
  Cd  Cd1  1  0.96100440  0.50000000  0.03835296  1
  W  W2  1  0.96035436  0.00000000  0.03989256  1
  W  W3  1  0.96035436  0.50000000  0.53989256  1
  Br  Br4  1  0.46615106  0.00000000  0.21623082  1
  Br  Br5  1  0.46615106  0.50000000  0.71623082  1
  O  O6  1  0.45753018  0.00000000  0.95119366  1
  O  O7  1  0.45753018  0.50000000  0.45119366  1
