# generated using pymatgen
data_ErNi2H7
_symmetry_space_group_name_H-M   'P 1'
_cell_length_a   3.46971348
_cell_length_b   4.83438883
_cell_length_c   4.83439256
_cell_angle_alpha   119.16504575
_cell_angle_beta   90.00000000
_cell_angle_gamma   90.00000000
_symmetry_Int_Tables_number   1
_chemical_formula_structural   ErNi2H7
_chemical_formula_sum   'Er1 Ni2 H7'
_cell_volume   70.81097105
_cell_formula_units_Z   1
loop_
 _symmetry_equiv_pos_site_id
 _symmetry_equiv_pos_as_xyz
  1  'x, y, z'
loop_
 _atom_site_type_symbol
 _atom_site_label
 _atom_site_symmetry_multiplicity
 _atom_site_fract_x
 _atom_site_fract_y
 _atom_site_fract_z
 _atom_site_occupancy
  Er  Er0  1  0.00000000  0.00000000  0.00000000  1
  Ni  Ni1  1  0.50000000  0.69317427  0.30682577  1
  Ni  Ni2  1  0.50000000  0.30682573  0.69317423  1
  H  H3  1  0.00000000  0.68782563  0.31217412  1
  H  H4  1  0.00000000  0.31217437  0.68782588  1
  H  H5  1  0.50000000  0.04604437  0.31883051  1
  H  H6  1  0.50000000  0.95395563  0.68116949  1
  H  H7  1  0.50000000  0.31882988  0.04604396  1
  H  H8  1  0.50000000  0.68117012  0.95395604  1
  H  H9  1  0.50000000  0.50000000  0.50000000  1
