# generated using pymatgen
data_Ac(Dy2Ho)4
_symmetry_space_group_name_H-M   'P 1'
_cell_length_a   6.15638188
_cell_length_b   6.15638192
_cell_length_c   12.64376933
_cell_angle_alpha   106.53448463
_cell_angle_beta   91.72674195
_cell_angle_gamma   110.70937448
_symmetry_Int_Tables_number   1
_chemical_formula_structural   Ac(Dy2Ho)4
_chemical_formula_sum   'Ac1 Dy8 Ho4'
_cell_volume   425.11839956
_cell_formula_units_Z   1
loop_
 _symmetry_equiv_pos_site_id
 _symmetry_equiv_pos_as_xyz
  1  'x, y, z'
loop_
 _atom_site_type_symbol
 _atom_site_label
 _atom_site_symmetry_multiplicity
 _atom_site_fract_x
 _atom_site_fract_y
 _atom_site_fract_z
 _atom_site_occupancy
  Ac  Ac0  1  0.00000000  0.50000000  0.50000000  1
  Dy  Dy1  1  0.82525959  0.93401194  0.28715514  1
  Dy  Dy2  1  0.35314321  0.46189655  0.28715514  1
  Dy  Dy3  1  0.80724392  0.34594130  0.15318522  1
  Dy  Dy4  1  0.34920857  0.08618997  0.43539854  1
  Dy  Dy5  1  0.65079143  0.91381003  0.56460146  1
  Dy  Dy6  1  0.19275608  0.65405870  0.84681478  1
  Dy  Dy7  1  0.64685679  0.53810345  0.71284486  1
  Dy  Dy8  1  0.17474041  0.06598806  0.71284486  1
  Ho  Ho9  1  0.25745127  0.25745127  -0.00000000  1
  Ho  Ho10  1  0.74254873  0.74254873  1.00000000  1
  Ho  Ho11  1  0.28336078  0.85934655  0.14270733  1
  Ho  Ho12  1  0.71663922  0.14065345  0.85729267  1
