# generated using pymatgen
data_Sc2TlO
_symmetry_space_group_name_H-M   'P 1'
_cell_length_a   3.22213468
_cell_length_b   6.18903584
_cell_length_c   7.99454316
_cell_angle_alpha   110.53559277
_cell_angle_beta   90.00000000
_cell_angle_gamma   90.00000000
_symmetry_Int_Tables_number   1
_chemical_formula_structural   Sc2TlO
_chemical_formula_sum   'Sc4 Tl2 O2'
_cell_volume   149.29559672
_cell_formula_units_Z   2
loop_
 _symmetry_equiv_pos_site_id
 _symmetry_equiv_pos_as_xyz
  1  'x, y, z'
loop_
 _atom_site_type_symbol
 _atom_site_label
 _atom_site_symmetry_multiplicity
 _atom_site_fract_x
 _atom_site_fract_y
 _atom_site_fract_z
 _atom_site_occupancy
  Sc  Sc0  1  0.25000000  0.28366575  0.01798695  1
  Sc  Sc1  1  0.75000000  0.71633425  0.98201305  1
  Sc  Sc2  1  0.25000000  0.29611820  0.64691138  1
  Sc  Sc3  1  0.75000000  0.70388180  0.35308862  1
  Tl  Tl4  1  0.75000000  0.18879523  0.30534854  1
  Tl  Tl5  1  0.25000000  0.81120477  0.69465146  1
  O  O6  1  0.75000000  0.35381915  0.84493595  1
  O  O7  1  0.25000000  0.64618085  0.15506405  1
