# generated using pymatgen
data_Cs5H3Br2
_symmetry_space_group_name_H-M   'P 1'
_cell_length_a   4.83329378
_cell_length_b   8.72744501
_cell_length_c   10.26597486
_cell_angle_alpha   78.35398837
_cell_angle_beta   76.38458999
_cell_angle_gamma   73.92461287
_symmetry_Int_Tables_number   1
_chemical_formula_structural   Cs5H3Br2
_chemical_formula_sum   'Cs5 H3 Br2'
_cell_volume   400.06137319
_cell_formula_units_Z   1
loop_
 _symmetry_equiv_pos_site_id
 _symmetry_equiv_pos_as_xyz
  1  'x, y, z'
loop_
 _atom_site_type_symbol
 _atom_site_label
 _atom_site_symmetry_multiplicity
 _atom_site_fract_x
 _atom_site_fract_y
 _atom_site_fract_z
 _atom_site_occupancy
  Cs  Cs0  1  0.00000000  0.00000000  0.00000000  1
  Cs  Cs1  1  0.08444078  0.24206658  0.58905187  1
  Cs  Cs2  1  0.91555922  0.75793342  0.41094813  1
  Cs  Cs3  1  0.69238851  0.43076341  0.18445957  1
  Cs  Cs4  1  0.30761149  0.56923659  0.81554043  1
  H  H5  1  0.50000000  0.50000000  0.50000000  1
  H  H6  1  0.11408553  0.64538819  0.12644075  1
  H  H7  1  0.88591447  0.35461181  0.87355925  1
  Br  Br8  1  0.32846107  0.07768357  0.26539528  1
  Br  Br9  1  0.67153893  0.92231643  0.73460472  1
