# generated using pymatgen
data_Rb3TbTa2O8
_symmetry_space_group_name_H-M   'P 1'
_cell_length_a   6.28821521
_cell_length_b   6.28821522
_cell_length_c   8.07226104
_cell_angle_alpha   90.00000000
_cell_angle_beta   90.00000000
_cell_angle_gamma   120.00000002
_symmetry_Int_Tables_number   1
_chemical_formula_structural   Rb3TbTa2O8
_chemical_formula_sum   'Rb3 Tb1 Ta2 O8'
_cell_volume   276.42710349
_cell_formula_units_Z   1
loop_
 _symmetry_equiv_pos_site_id
 _symmetry_equiv_pos_as_xyz
  1  'x, y, z'
loop_
 _atom_site_type_symbol
 _atom_site_label
 _atom_site_symmetry_multiplicity
 _atom_site_fract_x
 _atom_site_fract_y
 _atom_site_fract_z
 _atom_site_occupancy
  Rb  Rb0  1  0.33333333  0.66666667  0.69482703  1
  Rb  Rb1  1  0.66666667  0.33333333  0.30517297  1
  Rb  Rb2  1  0.00000000  0.00000000  0.00000000  1
  Tb  Tb3  1  0.00000000  0.00000000  0.50000000  1
  Ta  Ta4  1  0.33333333  0.66666667  0.25112338  1
  Ta  Ta5  1  0.66666667  0.33333333  0.74887662  1
  O  O6  1  0.33333333  0.66666667  0.02578288  1
  O  O7  1  0.66666667  0.33333333  0.97421712  1
  O  O8  1  0.17046311  0.82953689  0.33190718  1
  O  O9  1  0.82953689  0.17046311  0.66809282  1
  O  O10  1  0.17046311  0.34092623  0.33190718  1
  O  O11  1  0.82953689  0.65907377  0.66809282  1
  O  O12  1  0.65907377  0.82953689  0.33190718  1
  O  O13  1  0.34092623  0.17046311  0.66809282  1
