# generated using pymatgen
data_SrAlFe2
_symmetry_space_group_name_H-M   'P 1'
_cell_length_a   3.97799891
_cell_length_b   5.24513882
_cell_length_c   7.55730951
_cell_angle_alpha   90.00000000
_cell_angle_beta   90.00000000
_cell_angle_gamma   90.00000000
_symmetry_Int_Tables_number   1
_chemical_formula_structural   SrAlFe2
_chemical_formula_sum   'Sr2 Al2 Fe4'
_cell_volume   157.68444571
_cell_formula_units_Z   2
loop_
 _symmetry_equiv_pos_site_id
 _symmetry_equiv_pos_as_xyz
  1  'x, y, z'
loop_
 _atom_site_type_symbol
 _atom_site_label
 _atom_site_symmetry_multiplicity
 _atom_site_fract_x
 _atom_site_fract_y
 _atom_site_fract_z
 _atom_site_occupancy
  Sr  Sr0  1  0.00000000  0.75000000  0.67403930  1
  Sr  Sr1  1  0.00000000  0.25000000  0.32596070  1
  Fe  Fe2  1  0.00000000  0.25000000  0.92366858  1
  Fe  Fe3  1  0.00000000  0.75000000  0.07633142  1
  Fe  Fe4  1  0.50000000  0.00000000  0.00000000  1
  Fe  Fe5  1  0.50000000  0.50000000  0.00000000  1
  Al  Al6  1  0.50000000  0.25000000  0.71473261  1
  Al  Al7  1  0.50000000  0.75000000  0.28526739  1
