# generated using pymatgen
data_Ac2BeZn
_symmetry_space_group_name_H-M   'P 1'
_cell_length_a   3.79699429
_cell_length_b   3.79699429
_cell_length_c   11.35290378
_cell_angle_alpha   80.37344628
_cell_angle_beta   80.37344628
_cell_angle_gamma   59.99999991
_symmetry_Int_Tables_number   1
_chemical_formula_structural   Ac2BeZn
_chemical_formula_sum   'Ac2 Be1 Zn1'
_cell_volume   139.08046720
_cell_formula_units_Z   1
loop_
 _symmetry_equiv_pos_site_id
 _symmetry_equiv_pos_as_xyz
  1  'x, y, z'
loop_
 _atom_site_type_symbol
 _atom_site_label
 _atom_site_symmetry_multiplicity
 _atom_site_fract_x
 _atom_site_fract_y
 _atom_site_fract_z
 _atom_site_occupancy
  Be  Be0  1  0.00000000  0.00000000  0.00000000  1
  Ac  Ac1  1  0.09487832  0.09487832  0.71536604  1
  Ac  Ac2  1  0.90512168  0.90512168  0.28463396  1
  Zn  Zn3  1  0.50000000  0.50000000  0.50000000  1
