# generated using pymatgen
data_Cs2HfSbS4
_symmetry_space_group_name_H-M   'P 1'
_cell_length_a   7.11191874
_cell_length_b   7.95017216
_cell_length_c   12.95792226
_cell_angle_alpha   82.94948386
_cell_angle_beta   74.07233396
_cell_angle_gamma   63.43064366
_symmetry_Int_Tables_number   1
_chemical_formula_structural   Cs2HfSbS4
_chemical_formula_sum   'Cs4 Hf2 Sb2 S8'
_cell_volume   630.12374377
_cell_formula_units_Z   2
loop_
 _symmetry_equiv_pos_site_id
 _symmetry_equiv_pos_as_xyz
  1  'x, y, z'
loop_
 _atom_site_type_symbol
 _atom_site_label
 _atom_site_symmetry_multiplicity
 _atom_site_fract_x
 _atom_site_fract_y
 _atom_site_fract_z
 _atom_site_occupancy
  Cs  Cs0  1  0.18094451  0.00000000  0.63811099  1
  Cs  Cs1  1  0.81905549  0.00000000  0.36188901  1
  Cs  Cs2  1  0.56905549  0.50000000  0.86188901  1
  Cs  Cs3  1  0.93094451  0.50000000  0.13811099  1
  Hf  Hf4  1  0.75000000  0.50000000  0.50000000  1
  Hf  Hf5  1  0.00000000  0.00000000  0.00000000  1
  Sb  Sb6  1  0.25000000  0.50000000  0.50000000  1
  Sb  Sb7  1  0.50000000  0.00000000  0.00000000  1
  S  S8  1  0.23767473  0.82561176  0.11303212  1
  S  S9  1  0.17631861  0.17438824  0.88696788  1
  S  S10  1  0.93671351  0.82561176  0.88696788  1
  S  S11  1  0.64929315  0.17438824  0.11303212  1
  S  S12  1  0.51232527  0.67438824  0.38696788  1
  S  S13  1  0.57368139  0.32561176  0.61303212  1
  S  S14  1  0.81328649  0.67438824  0.61303212  1
  S  S15  1  0.10070685  0.32561176  0.38696788  1
