# generated using pymatgen
data_NpNi
_symmetry_space_group_name_H-M   'P 1'
_cell_length_a   4.49553724
_cell_length_b   3.72551575
_cell_length_c   4.73254339
_cell_angle_alpha   90.00000000
_cell_angle_beta   118.35758818
_cell_angle_gamma   90.00000000
_symmetry_Int_Tables_number   1
_chemical_formula_structural   NpNi
_chemical_formula_sum   'Np2 Ni2'
_cell_volume   69.75020336
_cell_formula_units_Z   2
loop_
 _symmetry_equiv_pos_site_id
 _symmetry_equiv_pos_as_xyz
  1  'x, y, z'
loop_
 _atom_site_type_symbol
 _atom_site_label
 _atom_site_symmetry_multiplicity
 _atom_site_fract_x
 _atom_site_fract_y
 _atom_site_fract_z
 _atom_site_occupancy
  Np  Np0  1  0.89638541  0.25000000  0.79276591  1
  Np  Np1  1  0.10361459  0.75000000  0.20723409  1
  Ni  Ni2  1  0.60030316  0.25000000  0.20059894  1
  Ni  Ni3  1  0.39969684  0.75000000  0.79940106  1
