# generated using pymatgen
data_K2ScCuO4
_symmetry_space_group_name_H-M   'P 1'
_cell_length_a   5.42097584
_cell_length_b   6.89600749
_cell_length_c   10.78381362
_cell_angle_alpha   84.33034699
_cell_angle_beta   75.44271712
_cell_angle_gamma   66.85547707
_symmetry_Int_Tables_number   1
_chemical_formula_structural   K2ScCuO4
_chemical_formula_sum   'K4 Sc2 Cu2 O8'
_cell_volume   358.78649898
_cell_formula_units_Z   2
loop_
 _symmetry_equiv_pos_site_id
 _symmetry_equiv_pos_as_xyz
  1  'x, y, z'
loop_
 _atom_site_type_symbol
 _atom_site_label
 _atom_site_symmetry_multiplicity
 _atom_site_fract_x
 _atom_site_fract_y
 _atom_site_fract_z
 _atom_site_occupancy
  K  K0  1  0.19132763  0.00000000  0.61734473  1
  K  K1  1  0.80867237  1.00000000  0.38265527  1
  K  K2  1  0.55867237  0.50000000  0.88265527  1
  K  K3  1  0.94132763  0.50000000  0.11734473  1
  Sc  Sc4  1  0.75000000  0.50000000  0.50000000  1
  Sc  Sc5  1  0.00000000  0.00000000  0.00000000  1
  Cu  Cu6  1  0.25000000  0.50000000  0.50000000  1
  Cu  Cu7  1  0.50000000  0.00000000  0.00000000  1
  O  O8  1  0.33459333  0.80115569  0.05567556  1
  O  O9  1  0.19142458  0.19884431  0.94432444  1
  O  O10  1  0.86425098  0.80115569  0.94432444  1
  O  O11  1  0.60973111  0.19884431  0.05567556  1
  O  O12  1  0.41540667  0.69884431  0.44432444  1
  O  O13  1  0.55857542  0.30115569  0.55567556  1
  O  O14  1  0.88574902  0.69884431  0.55567556  1
  O  O15  1  0.14026889  0.30115569  0.44432444  1
