# generated using pymatgen
data_Cs(BP)2
_symmetry_space_group_name_H-M   'P 1'
_cell_length_a   6.38669245
_cell_length_b   7.37731491
_cell_length_c   7.23125803
_cell_angle_alpha   51.89741753
_cell_angle_beta   64.04601570
_cell_angle_gamma   64.60987480
_symmetry_Int_Tables_number   1
_chemical_formula_structural   Cs(BP)2
_chemical_formula_sum   'Cs2 B4 P4'
_cell_volume   234.92555917
_cell_formula_units_Z   2
loop_
 _symmetry_equiv_pos_site_id
 _symmetry_equiv_pos_as_xyz
  1  'x, y, z'
loop_
 _atom_site_type_symbol
 _atom_site_label
 _atom_site_symmetry_multiplicity
 _atom_site_fract_x
 _atom_site_fract_y
 _atom_site_fract_z
 _atom_site_occupancy
  Cs  Cs0  1  0.76387514  0.75258260  0.24731384  1
  Cs  Cs1  1  0.23611974  0.24741696  0.75268681  1
  B  B2  1  0.65504060  0.34631987  0.14500380  1
  B  B3  1  0.85273048  0.84766058  0.64583366  1
  B  B4  1  0.14726434  0.15233924  0.35416688  1
  B  B5  1  0.34495413  0.65367999  0.85499680  1
  P  P6  1  0.63780857  0.65716418  0.86272941  1
  P  P7  1  0.83869727  0.16082449  0.36689097  1
  P  P8  1  0.36218621  0.34283572  0.13727122  1
  P  P9  1  0.16129752  0.83917536  0.63310962  1
