# generated using pymatgen
data_MnCdCo2
_symmetry_space_group_name_H-M   'P 1'
_cell_length_a   6.60053031
_cell_length_b   6.60053031
_cell_length_c   5.35356061
_cell_angle_alpha   51.94179192
_cell_angle_beta   51.94179192
_cell_angle_gamma   90.00000000
_symmetry_Int_Tables_number   1
_chemical_formula_structural   MnCdCo2
_chemical_formula_sum   'Mn2 Cd2 Co4'
_cell_volume   114.25117527
_cell_formula_units_Z   2
loop_
 _symmetry_equiv_pos_site_id
 _symmetry_equiv_pos_as_xyz
  1  'x, y, z'
loop_
 _atom_site_type_symbol
 _atom_site_label
 _atom_site_symmetry_multiplicity
 _atom_site_fract_x
 _atom_site_fract_y
 _atom_site_fract_z
 _atom_site_occupancy
  Mn  Mn0  1  0.50000000  0.50000000  0.00000000  1
  Mn  Mn1  1  0.25000000  0.75000000  0.50000000  1
  Co  Co2  1  0.57618586  0.12500000  0.25000000  1
  Co  Co3  1  0.17381414  0.62500000  0.25000000  1
  Co  Co4  1  0.37500000  0.42381414  0.75000000  1
  Co  Co5  1  0.87500000  0.82618586  0.75000000  1
  Cd  Cd6  1  0.00000000  0.00000000  0.00000000  1
  Cd  Cd7  1  0.75000000  0.25000000  0.50000000  1
