# generated using pymatgen
data_GaCuNi
_symmetry_space_group_name_H-M   'P 1'
_cell_length_a   4.03546802
_cell_length_b   4.89749150
_cell_length_c   4.89766103
_cell_angle_alpha   96.52996514
_cell_angle_beta   65.67078778
_cell_angle_gamma   65.66989513
_symmetry_Int_Tables_number   1
_chemical_formula_structural   GaCuNi
_chemical_formula_sum   'Ga2 Cu2 Ni2'
_cell_volume   75.53773308
_cell_formula_units_Z   2
loop_
 _symmetry_equiv_pos_site_id
 _symmetry_equiv_pos_as_xyz
  1  'x, y, z'
loop_
 _atom_site_type_symbol
 _atom_site_label
 _atom_site_symmetry_multiplicity
 _atom_site_fract_x
 _atom_site_fract_y
 _atom_site_fract_z
 _atom_site_occupancy
  Ga  Ga0  1  0.74791749  0.25208053  0.25208349  1
  Ga  Ga1  1  0.25208251  0.74791947  0.74791651  1
  Cu  Cu2  1  0.50000200  0.83631735  0.16367865  1
  Cu  Cu3  1  0.49999800  0.16368265  0.83632135  1
  Ni  Ni4  1  0.00000199  0.33597773  0.66401829  1
  Ni  Ni5  1  0.99999801  0.66402227  0.33598171  1
