# generated using pymatgen
data_Pm2MnSi3Ir4
_symmetry_space_group_name_H-M   'P 1'
_cell_length_a   4.13136519
_cell_length_b   4.13136519
_cell_length_c   10.20509730
_cell_angle_alpha   90.00000000
_cell_angle_beta   90.00000000
_cell_angle_gamma   90.00000000
_symmetry_Int_Tables_number   1
_chemical_formula_structural   Pm2MnSi3Ir4
_chemical_formula_sum   'Pm2 Mn1 Si3 Ir4'
_cell_volume   174.18242062
_cell_formula_units_Z   1
loop_
 _symmetry_equiv_pos_site_id
 _symmetry_equiv_pos_as_xyz
  1  'x, y, z'
loop_
 _atom_site_type_symbol
 _atom_site_label
 _atom_site_symmetry_multiplicity
 _atom_site_fract_x
 _atom_site_fract_y
 _atom_site_fract_z
 _atom_site_occupancy
  Pm  Pm0  1  0.50000000  0.00000000  0.24982991  1
  Pm  Pm1  1  0.00000000  0.50000000  0.75017009  1
  Mn  Mn2  1  0.50000000  0.50000000  0.50000000  1
  Si  Si3  1  0.00000000  0.00000000  0.50000000  1
  Si  Si4  1  0.50000000  0.00000000  0.87303644  1
  Si  Si5  1  0.00000000  0.50000000  0.12696356  1
  Ir  Ir6  1  0.50000000  0.50000000  0.00000000  1
  Ir  Ir7  1  0.00000000  0.00000000  0.00000000  1
  Ir  Ir8  1  0.50000000  0.00000000  0.63642429  1
  Ir  Ir9  1  0.00000000  0.50000000  0.36357571  1
