# generated using pymatgen
data_KNpPtS2
_symmetry_space_group_name_H-M   'P 1'
_cell_length_a   4.74898972
_cell_length_b   7.65700787
_cell_length_c   7.53233872
_cell_angle_alpha   101.25950709
_cell_angle_beta   90.00000000
_cell_angle_gamma   90.00000000
_symmetry_Int_Tables_number   1
_chemical_formula_structural   KNpPtS2
_chemical_formula_sum   'K2 Np2 Pt2 S4'
_cell_volume   268.62706297
_cell_formula_units_Z   2
loop_
 _symmetry_equiv_pos_site_id
 _symmetry_equiv_pos_as_xyz
  1  'x, y, z'
loop_
 _atom_site_type_symbol
 _atom_site_label
 _atom_site_symmetry_multiplicity
 _atom_site_fract_x
 _atom_site_fract_y
 _atom_site_fract_z
 _atom_site_occupancy
  K  K0  1  0.18406697  0.50000000  0.75000000  1
  K  K1  1  0.81593303  0.50000000  0.25000000  1
  Np  Np2  1  0.49193486  0.00000000  0.25000000  1
  Np  Np3  1  0.50806514  0.00000000  0.75000000  1
  Pt  Pt4  1  0.00000000  0.00000000  0.00000000  1
  Pt  Pt5  1  0.00000000  0.00000000  0.50000000  1
  S  S6  1  0.69293981  0.75540980  0.95590736  1
  S  S7  1  0.69293981  0.24459020  0.54409264  1
  S  S8  1  0.30705919  0.75540980  0.45590736  1
  S  S9  1  0.30705919  0.24459020  0.04409264  1
