# generated using pymatgen
data_Sb2AsPbI
_symmetry_space_group_name_H-M   'P 1'
_cell_length_a   5.97566044
_cell_length_b   5.97566044
_cell_length_c   5.99669426
_cell_angle_alpha   90.00000000
_cell_angle_beta   90.00000000
_cell_angle_gamma   90.00000000
_symmetry_Int_Tables_number   1
_chemical_formula_structural   Sb2AsPbI
_chemical_formula_sum   'Sb2 As1 Pb1 I1'
_cell_volume   214.13306309
_cell_formula_units_Z   1
loop_
 _symmetry_equiv_pos_site_id
 _symmetry_equiv_pos_as_xyz
  1  'x, y, z'
loop_
 _atom_site_type_symbol
 _atom_site_label
 _atom_site_symmetry_multiplicity
 _atom_site_fract_x
 _atom_site_fract_y
 _atom_site_fract_z
 _atom_site_occupancy
  Pb  Pb0  1  0.00000000  0.00000000  0.00000000  1
  I  I1  1  0.00000000  0.00000000  0.50000000  1
  As  As2  1  0.50000000  0.50000000  0.50000000  1
  Sb  Sb3  1  0.00000000  0.50000000  0.00000000  1
  Sb  Sb4  1  0.50000000  0.00000000  0.00000000  1
