# generated using pymatgen
data_Er3PaCo3
_symmetry_space_group_name_H-M   'P 1'
_cell_length_a   3.67768858
_cell_length_b   6.33951695
_cell_length_c   13.15915585
_cell_angle_alpha   87.55037091
_cell_angle_beta   81.96727486
_cell_angle_gamma   73.13841384
_symmetry_Int_Tables_number   1
_chemical_formula_structural   Er3PaCo3
_chemical_formula_sum   'Er6 Pa2 Co6'
_cell_volume   290.73110667
_cell_formula_units_Z   2
loop_
 _symmetry_equiv_pos_site_id
 _symmetry_equiv_pos_as_xyz
  1  'x, y, z'
loop_
 _atom_site_type_symbol
 _atom_site_label
 _atom_site_symmetry_multiplicity
 _atom_site_fract_x
 _atom_site_fract_y
 _atom_site_fract_z
 _atom_site_occupancy
  Er  Er0  1  0.48193812  0.40074562  0.63537815  1
  Er  Er1  1  0.51806188  0.59925438  0.36462185  1
  Er  Er2  1  0.26953225  0.26700793  0.19392858  1
  Er  Er3  1  0.73046775  0.73299207  0.80607142  1
  Er  Er4  1  0.40686332  0.26422983  0.92204252  1
  Er  Er5  1  0.59313668  0.73577017  0.07795748  1
  Pa  Pa6  1  0.78100170  0.04764701  0.39035059  1
  Pa  Pa7  1  0.21899830  0.95235299  0.60964941  1
  Co  Co8  1  0.87590071  0.71123910  0.53695848  1
  Co  Co9  1  0.12409929  0.28876090  0.46304152  1
  Co  Co10  1  0.08905049  0.89124055  0.93065747  1
  Co  Co11  1  0.91094951  0.10875945  0.06934253  1
  Co  Co12  1  0.93760830  0.88764343  0.23714097  1
  Co  Co13  1  0.06239170  0.11235657  0.76285903  1
