# generated using pymatgen
data_Ca2NpPaAs4
_symmetry_space_group_name_H-M   'P 1'
_cell_length_a   4.19026929
_cell_length_b   7.23774213
_cell_length_c   7.26322102
_cell_angle_alpha   109.55756275
_cell_angle_beta   90.00000000
_cell_angle_gamma   90.00000000
_symmetry_Int_Tables_number   1
_chemical_formula_structural   Ca2NpPaAs4
_chemical_formula_sum   'Ca2 Np1 Pa1 As4'
_cell_volume   207.57072197
_cell_formula_units_Z   1
loop_
 _symmetry_equiv_pos_site_id
 _symmetry_equiv_pos_as_xyz
  1  'x, y, z'
loop_
 _atom_site_type_symbol
 _atom_site_label
 _atom_site_symmetry_multiplicity
 _atom_site_fract_x
 _atom_site_fract_y
 _atom_site_fract_z
 _atom_site_occupancy
  Ca  Ca0  1  0.50000000  0.00000000  0.50000000  1
  Ca  Ca1  1  0.00000000  0.50000000  0.50000000  1
  Np  Np2  1  0.50000000  0.50000000  0.00000000  1
  Pa  Pa3  1  0.00000000  0.00000000  0.00000000  1
  As  As4  1  0.50000000  0.23942627  0.23253502  1
  As  As5  1  0.50000000  0.76057373  0.76746498  1
  As  As6  1  0.00000000  0.25212897  0.76828788  1
  As  As7  1  0.00000000  0.74787103  0.23171212  1
