# generated using pymatgen
data_NiGe2Pb
_symmetry_space_group_name_H-M   'P 1'
_cell_length_a   3.37283692
_cell_length_b   3.37283692
_cell_length_c   8.94745896
_cell_angle_alpha   79.13589889
_cell_angle_beta   79.13589889
_cell_angle_gamma   59.99999995
_symmetry_Int_Tables_number   1
_chemical_formula_structural   NiGe2Pb
_chemical_formula_sum   'Ni1 Ge2 Pb1'
_cell_volume   86.03674848
_cell_formula_units_Z   1
loop_
 _symmetry_equiv_pos_site_id
 _symmetry_equiv_pos_as_xyz
  1  'x, y, z'
loop_
 _atom_site_type_symbol
 _atom_site_label
 _atom_site_symmetry_multiplicity
 _atom_site_fract_x
 _atom_site_fract_y
 _atom_site_fract_z
 _atom_site_occupancy
  Pb  Pb0  1  0.00000000  0.00000000  0.00000000  1
  Ni  Ni1  1  0.50000000  0.50000000  0.50000000  1
  Ge  Ge2  1  0.11237802  0.11237802  0.66286695  1
  Ge  Ge3  1  0.88762198  0.88762198  0.33713305  1
