# generated using pymatgen
data_Gd2Mn2Zn
_symmetry_space_group_name_H-M   'P 1'
_cell_length_a   4.32798245
_cell_length_b   6.70889769
_cell_length_c   6.70889769
_cell_angle_alpha   90.00000000
_cell_angle_beta   90.00000000
_cell_angle_gamma   90.00000000
_symmetry_Int_Tables_number   1
_chemical_formula_structural   Gd2Mn2Zn
_chemical_formula_sum   'Gd4 Mn4 Zn2'
_cell_volume   194.79949604
_cell_formula_units_Z   2
loop_
 _symmetry_equiv_pos_site_id
 _symmetry_equiv_pos_as_xyz
  1  'x, y, z'
loop_
 _atom_site_type_symbol
 _atom_site_label
 _atom_site_symmetry_multiplicity
 _atom_site_fract_x
 _atom_site_fract_y
 _atom_site_fract_z
 _atom_site_occupancy
  Zn  Zn0  1  0.00000000  0.00000000  0.00000000  1
  Zn  Zn1  1  0.00000000  0.50000000  0.50000000  1
  Gd  Gd2  1  0.50000000  0.68528752  0.81471248  1
  Gd  Gd3  1  0.50000000  0.81471248  0.31471248  1
  Gd  Gd4  1  0.50000000  0.18528752  0.68528752  1
  Gd  Gd5  1  0.50000000  0.31471248  0.18528752  1
  Mn  Mn6  1  0.00000000  0.39168138  0.89168138  1
  Mn  Mn7  1  0.00000000  0.10831862  0.39168138  1
  Mn  Mn8  1  0.00000000  0.89168138  0.60831862  1
  Mn  Mn9  1  0.00000000  0.60831862  0.10831862  1
