# generated using pymatgen
data_TbAgPb
_symmetry_space_group_name_H-M   'P 1'
_cell_length_a   4.82941782
_cell_length_b   4.82941782
_cell_length_c   7.51573504
_cell_angle_alpha   90.00000000
_cell_angle_beta   90.00000000
_cell_angle_gamma   119.99999999
_symmetry_Int_Tables_number   1
_chemical_formula_structural   TbAgPb
_chemical_formula_sum   'Tb2 Ag2 Pb2'
_cell_volume   151.80694956
_cell_formula_units_Z   2
loop_
 _symmetry_equiv_pos_site_id
 _symmetry_equiv_pos_as_xyz
  1  'x, y, z'
loop_
 _atom_site_type_symbol
 _atom_site_label
 _atom_site_symmetry_multiplicity
 _atom_site_fract_x
 _atom_site_fract_y
 _atom_site_fract_z
 _atom_site_occupancy
  Pb  Pb0  1  0.33333333  0.66666667  0.22351228  1
  Pb  Pb1  1  0.66666667  0.33333333  0.72351228  1
  Tb  Tb2  1  0.00000000  0.00000000  0.00360114  1
  Tb  Tb3  1  0.00000000  0.00000000  0.50360114  1
  Ag  Ag4  1  0.66666667  0.33333333  0.31808659  1
  Ag  Ag5  1  0.33333333  0.66666667  0.81808659  1
