# generated using pymatgen
data_Cs2Tl5Hg3Pt2
_symmetry_space_group_name_H-M   'P 1'
_cell_length_a   5.36183754
_cell_length_b   5.36183754
_cell_length_c   15.88191200
_cell_angle_alpha   99.71824627
_cell_angle_beta   99.71824627
_cell_angle_gamma   90.00000000
_symmetry_Int_Tables_number   1
_chemical_formula_structural   Cs2Tl5Hg3Pt2
_chemical_formula_sum   'Cs2 Tl5 Hg3 Pt2'
_cell_volume   443.39260501
_cell_formula_units_Z   1
loop_
 _symmetry_equiv_pos_site_id
 _symmetry_equiv_pos_as_xyz
  1  'x, y, z'
loop_
 _atom_site_type_symbol
 _atom_site_label
 _atom_site_symmetry_multiplicity
 _atom_site_fract_x
 _atom_site_fract_y
 _atom_site_fract_z
 _atom_site_occupancy
  Cs  Cs0  1  0.70114233  0.70114133  0.40228366  1
  Cs  Cs1  1  0.29885767  0.29885867  0.59771634  1
  Tl  Tl2  1  0.59352791  0.09352691  0.18705483  1
  Tl  Tl3  1  0.40647209  0.90647309  0.81294517  1
  Tl  Tl4  1  0.09352791  0.59352691  0.18705483  1
  Tl  Tl5  1  0.90647209  0.40647309  0.81294517  1
  Tl  Tl6  1  0.50000000  0.50000000  0.00000000  1
  Hg  Hg7  1  0.16596689  0.16596589  0.33193278  1
  Hg  Hg8  1  0.83403311  0.83403411  0.66806722  1
  Hg  Hg9  1  0.00000000  0.00000000  0.00000000  1
  Pt  Pt10  1  0.41189331  0.41189331  0.82378663  1
  Pt  Pt11  1  0.58810669  0.58810669  0.17621337  1
