# generated using pymatgen
data_Ni(SnAs)3
_symmetry_space_group_name_H-M   'P 1'
_cell_length_a   8.59244359
_cell_length_b   3.72583452
_cell_length_c   18.68738429
_cell_angle_alpha   90.00000000
_cell_angle_beta   90.00000000
_cell_angle_gamma   77.58000810
_symmetry_Int_Tables_number   1
_chemical_formula_structural   Ni(SnAs)3
_chemical_formula_sum   'Ni1 Sn3 As3'
_cell_volume   584.25748317
_cell_formula_units_Z   1
loop_
 _symmetry_equiv_pos_site_id
 _symmetry_equiv_pos_as_xyz
  1  'x, y, z'
loop_
 _atom_site_type_symbol
 _atom_site_label
 _atom_site_symmetry_multiplicity
 _atom_site_fract_x
 _atom_site_fract_y
 _atom_site_fract_z
 _atom_site_occupancy
  Ni  Ni0  1  0.62847645  0.33512199  0.50000000  1
  Sn  Sn1  1  0.80934058  0.74219769  0.59865973  1
  Sn  Sn2  1  0.80934061  0.74219768  0.40134029  1
  Sn  Sn3  1  0.27278753  0.51180606  0.50000000  1
  As  As4  1  0.48688322  0.90520764  0.57003778  1
  As  As5  1  0.48688326  0.90520761  0.42996221  1
  As  As6  1  0.92951835  0.18252132  0.50000000  1
