# generated using pymatgen
data_Cs2SnAuBr
_symmetry_space_group_name_H-M   'P 1'
_cell_length_a   6.99064727
_cell_length_b   5.80926399
_cell_length_c   6.99064727
_cell_angle_alpha   90.00000000
_cell_angle_beta   90.00000000
_cell_angle_gamma   90.00000000
_symmetry_Int_Tables_number   1
_chemical_formula_structural   Cs2SnAuBr
_chemical_formula_sum   'Cs2 Sn1 Au1 Br1'
_cell_volume   283.89378898
_cell_formula_units_Z   1
loop_
 _symmetry_equiv_pos_site_id
 _symmetry_equiv_pos_as_xyz
  1  'x, y, z'
loop_
 _atom_site_type_symbol
 _atom_site_label
 _atom_site_symmetry_multiplicity
 _atom_site_fract_x
 _atom_site_fract_y
 _atom_site_fract_z
 _atom_site_occupancy
  Cs  Cs0  1  0.00000000  0.00000000  0.50000000  1
  Cs  Cs1  1  0.50000000  0.00000000  0.00000000  1
  Au  Au2  1  0.50000000  0.50000000  0.50000000  1
  Sn  Sn3  1  0.00000000  0.50000000  0.00000000  1
  Br  Br4  1  0.00000000  0.00000000  0.00000000  1
