# generated using pymatgen
data_BaF
_symmetry_space_group_name_H-M   'P 1'
_cell_length_a   7.67680679
_cell_length_b   7.67680679
_cell_length_c   4.38283531
_cell_angle_alpha   90.00000000
_cell_angle_beta   90.00000000
_cell_angle_gamma   90.00000000
_symmetry_Int_Tables_number   1
_chemical_formula_structural   BaF
_chemical_formula_sum   'Ba4 F4'
_cell_volume   258.29522206
_cell_formula_units_Z   4
loop_
 _symmetry_equiv_pos_site_id
 _symmetry_equiv_pos_as_xyz
  1  'x, y, z'
loop_
 _atom_site_type_symbol
 _atom_site_label
 _atom_site_symmetry_multiplicity
 _atom_site_fract_x
 _atom_site_fract_y
 _atom_site_fract_z
 _atom_site_occupancy
  Ba  Ba0  1  0.30027650  0.30027650  0.00000000  1
  Ba  Ba1  1  0.80027650  0.19972350  0.50000000  1
  Ba  Ba2  1  0.19972350  0.80027650  0.50000000  1
  Ba  Ba3  1  0.69972350  0.69972350  0.00000000  1
  F  F4  1  0.35733662  0.64266338  0.00000000  1
  F  F5  1  0.85733662  0.85733662  0.50000000  1
  F  F6  1  0.14266338  0.14266338  0.50000000  1
  F  F7  1  0.64266338  0.35733662  0.00000000  1
