# generated using pymatgen
data_MnVPd2
_symmetry_space_group_name_H-M   'P 1'
_cell_length_a   3.27549213
_cell_length_b   3.27549213
_cell_length_c   5.57349025
_cell_angle_alpha   90.00000000
_cell_angle_beta   90.00000000
_cell_angle_gamma   90.00000000
_symmetry_Int_Tables_number   1
_chemical_formula_structural   MnVPd2
_chemical_formula_sum   'Mn1 V1 Pd2'
_cell_volume   59.79713359
_cell_formula_units_Z   1
loop_
 _symmetry_equiv_pos_site_id
 _symmetry_equiv_pos_as_xyz
  1  'x, y, z'
loop_
 _atom_site_type_symbol
 _atom_site_label
 _atom_site_symmetry_multiplicity
 _atom_site_fract_x
 _atom_site_fract_y
 _atom_site_fract_z
 _atom_site_occupancy
  Mn  Mn0  1  0.50000000  0.50000000  0.50000000  1
  Pd  Pd1  1  0.00000000  0.00000000  0.75376341  1
  Pd  Pd2  1  0.00000000  0.00000000  0.24623659  1
  V  V3  1  0.50000000  0.50000000  0.00000000  1
