# generated using pymatgen
data_PaNiN2Cl
_symmetry_space_group_name_H-M   'P 1'
_cell_length_a   4.39606787
_cell_length_b   4.61467673
_cell_length_c   8.68875912
_cell_angle_alpha   103.73701312
_cell_angle_beta   90.00000000
_cell_angle_gamma   90.00000000
_symmetry_Int_Tables_number   1
_chemical_formula_structural   PaNiN2Cl
_chemical_formula_sum   'Pa2 Ni2 N4 Cl2'
_cell_volume   171.22205436
_cell_formula_units_Z   2
loop_
 _symmetry_equiv_pos_site_id
 _symmetry_equiv_pos_as_xyz
  1  'x, y, z'
loop_
 _atom_site_type_symbol
 _atom_site_label
 _atom_site_symmetry_multiplicity
 _atom_site_fract_x
 _atom_site_fract_y
 _atom_site_fract_z
 _atom_site_occupancy
  Pa  Pa0  1  0.75000000  0.86866672  0.32540615  1
  Pa  Pa1  1  0.25000000  0.13133328  0.67459385  1
  Ni  Ni2  1  0.75000000  0.57466742  0.59614078  1
  Ni  Ni3  1  0.25000000  0.42533258  0.40385922  1
  N  N4  1  0.25000000  0.01710858  0.31611475  1
  N  N5  1  0.25000000  0.83061664  0.42867199  1
  N  N6  1  0.75000000  0.16938336  0.57132801  1
  N  N7  1  0.75000000  0.98289142  0.68388525  1
  Cl  Cl8  1  0.75000000  0.30366664  0.12000949  1
  Cl  Cl9  1  0.25000000  0.69633336  0.87999051  1
