# generated using pymatgen
data_Nd2(SmEr2)3
_symmetry_space_group_name_H-M   'P 1'
_cell_length_a   4.74756939
_cell_length_b   4.74756939
_cell_length_c   16.91022430
_cell_angle_alpha   98.06958736
_cell_angle_beta   98.06958736
_cell_angle_gamma   90.00000000
_symmetry_Int_Tables_number   1
_chemical_formula_structural   Nd2(SmEr2)3
_chemical_formula_sum   'Nd2 Sm3 Er6'
_cell_volume   373.56044806
_cell_formula_units_Z   1
loop_
 _symmetry_equiv_pos_site_id
 _symmetry_equiv_pos_as_xyz
  1  'x, y, z'
loop_
 _atom_site_type_symbol
 _atom_site_label
 _atom_site_symmetry_multiplicity
 _atom_site_fract_x
 _atom_site_fract_y
 _atom_site_fract_z
 _atom_site_occupancy
  Nd  Nd0  1  0.45366629  0.45366529  0.90733159  1
  Nd  Nd1  1  0.54633371  0.54633471  0.09266841  1
  Sm  Sm2  1  0.00000000  0.00000000  0.00000000  1
  Sm  Sm3  1  0.79673971  0.79673971  0.59347942  1
  Sm  Sm4  1  0.20326029  0.20326029  0.40652058  1
  Er  Er5  1  0.12149826  0.62149926  0.24299752  1
  Er  Er6  1  0.62149826  0.12149926  0.24299752  1
  Er  Er7  1  0.87850174  0.37850074  0.75700248  1
  Er  Er8  1  0.37850174  0.87850074  0.75700248  1
  Er  Er9  1  0.69330507  0.69330407  0.38660913  1
  Er  Er10  1  0.30669493  0.30669593  0.61339087  1
