# generated using pymatgen
data_BaMgNbN3
_symmetry_space_group_name_H-M   'P 1'
_cell_length_a   5.77414213
_cell_length_b   5.80563385
_cell_length_c   6.14096606
_cell_angle_alpha   118.20951492
_cell_angle_beta   90.00000000
_cell_angle_gamma   90.00000000
_symmetry_Int_Tables_number   1
_chemical_formula_structural   BaMgNbN3
_chemical_formula_sum   'Ba2 Mg2 Nb2 N6'
_cell_volume   181.40974015
_cell_formula_units_Z   2
loop_
 _symmetry_equiv_pos_site_id
 _symmetry_equiv_pos_as_xyz
  1  'x, y, z'
loop_
 _atom_site_type_symbol
 _atom_site_label
 _atom_site_symmetry_multiplicity
 _atom_site_fract_x
 _atom_site_fract_y
 _atom_site_fract_z
 _atom_site_occupancy
  Ba  Ba0  1  0.75000000  0.25898575  0.51797150  1
  Ba  Ba1  1  0.25000000  0.74101425  0.48202850  1
  Mg  Mg2  1  0.25000000  0.43565736  0.87131471  1
  Mg  Mg3  1  0.75000000  0.56434264  0.12868529  1
  Nb  Nb4  1  0.25000000  0.05861762  0.11723424  1
  Nb  Nb5  1  0.75000000  0.94138238  0.88276576  1
  N  N6  1  0.25000000  0.23539341  0.47078581  1
  N  N7  1  0.00000000  0.24080716  1.00000000  1
  N  N8  1  0.50000000  0.75919284  0.00000000  1
  N  N9  1  0.50000000  0.24080716  1.00000000  1
  N  N10  1  0.00000000  0.75919284  0.00000000  1
  N  N11  1  0.75000000  0.76460659  0.52921419  1
