# generated using pymatgen
data_Sr2TbCu
_symmetry_space_group_name_H-M   'P 1'
_cell_length_a   3.90071301
_cell_length_b   3.90071301
_cell_length_c   11.60512469
_cell_angle_alpha   80.32496128
_cell_angle_beta   80.32496126
_cell_angle_gamma   59.99999994
_symmetry_Int_Tables_number   1
_chemical_formula_structural   Sr2TbCu
_chemical_formula_sum   'Sr2 Tb1 Cu1'
_cell_volume   150.01440623
_cell_formula_units_Z   1
loop_
 _symmetry_equiv_pos_site_id
 _symmetry_equiv_pos_as_xyz
  1  'x, y, z'
loop_
 _atom_site_type_symbol
 _atom_site_label
 _atom_site_symmetry_multiplicity
 _atom_site_fract_x
 _atom_site_fract_y
 _atom_site_fract_z
 _atom_site_occupancy
  Sr  Sr0  1  0.10724272  0.10724272  0.67827283  1
  Sr  Sr1  1  0.89275728  0.89275728  0.32172717  1
  Tb  Tb2  1  0.00000000  0.00000000  0.00000000  1
  Cu  Cu3  1  0.50000000  0.50000000  0.50000000  1
