# generated using pymatgen
data_TeF
_symmetry_space_group_name_H-M   'P 1'
_cell_length_a   4.55585058
_cell_length_b   5.70210454
_cell_length_c   11.22627632
_cell_angle_alpha   90.00000000
_cell_angle_beta   90.00000000
_cell_angle_gamma   90.00000000
_symmetry_Int_Tables_number   1
_chemical_formula_structural   TeF
_chemical_formula_sum   'Te6 F6'
_cell_volume   291.63549086
_cell_formula_units_Z   6
loop_
 _symmetry_equiv_pos_site_id
 _symmetry_equiv_pos_as_xyz
  1  'x, y, z'
loop_
 _atom_site_type_symbol
 _atom_site_label
 _atom_site_symmetry_multiplicity
 _atom_site_fract_x
 _atom_site_fract_y
 _atom_site_fract_z
 _atom_site_occupancy
  Te  Te0  1  0.00000000  0.62294947  0.84400787  1
  Te  Te1  1  0.50000000  0.37705053  0.65599213  1
  Te  Te2  1  0.50000000  0.37705053  0.34400787  1
  Te  Te3  1  0.00000000  0.62294947  0.15599213  1
  Te  Te4  1  0.00000000  0.20452003  0.50000000  1
  Te  Te5  1  0.50000000  0.79547997  0.00000000  1
  F  F6  1  0.00000000  0.85864985  0.71243218  1
  F  F7  1  0.50000000  0.14135015  0.78756782  1
  F  F8  1  0.50000000  0.14135015  0.21243218  1
  F  F9  1  0.00000000  0.85864985  0.28756782  1
  F  F10  1  0.00000000  0.37110347  0.00000000  1
  F  F11  1  0.50000000  0.62889653  0.50000000  1
