# generated using pymatgen
data_EuYSe
_symmetry_space_group_name_H-M   'P 1'
_cell_length_a   6.79326838
_cell_length_b   3.98573396
_cell_length_c   3.98573396
_cell_angle_alpha   120.00000001
_cell_angle_beta   90.00000000
_cell_angle_gamma   90.00000000
_symmetry_Int_Tables_number   1
_chemical_formula_structural   EuYSe
_chemical_formula_sum   'Eu1 Y1 Se1'
_cell_volume   93.46005192
_cell_formula_units_Z   1
loop_
 _symmetry_equiv_pos_site_id
 _symmetry_equiv_pos_as_xyz
  1  'x, y, z'
loop_
 _atom_site_type_symbol
 _atom_site_label
 _atom_site_symmetry_multiplicity
 _atom_site_fract_x
 _atom_site_fract_y
 _atom_site_fract_z
 _atom_site_occupancy
  Eu  Eu0  1  0.61076342  0.66666667  0.33333333  1
  Y  Y1  1  0.06649647  0.00000000  0.00000000  1
  Se  Se2  1  0.32274011  0.33333333  0.66666667  1
