# generated using pymatgen
data_K9(WO3)20
_symmetry_space_group_name_H-M   'P 1'
_cell_length_a   7.82609749
_cell_length_b   13.15251739
_cell_length_c   13.14872024
_cell_angle_alpha   84.89093558
_cell_angle_beta   107.35264514
_cell_angle_gamma   107.29577445
_symmetry_Int_Tables_number   1
_chemical_formula_structural   K9(WO3)20
_chemical_formula_sum   'K9 W20 O60'
_cell_volume   1233.42353137
_cell_formula_units_Z   1
loop_
 _symmetry_equiv_pos_site_id
 _symmetry_equiv_pos_as_xyz
  1  'x, y, z'
loop_
 _atom_site_type_symbol
 _atom_site_label
 _atom_site_symmetry_multiplicity
 _atom_site_fract_x
 _atom_site_fract_y
 _atom_site_fract_z
 _atom_site_occupancy
  K  K0  1  0.74854213  0.67175080  0.82603918  1
  K  K1  1  0.24971352  0.67225126  0.82658624  1
  K  K2  1  0.42167169  0.17350623  0.67090292  1
  K  K3  1  0.92231937  0.17286307  0.67145204  1
  K  K4  1  0.50000000  0.50000000  0.50000000  1
  K  K5  1  0.57832831  0.82649377  0.32909708  1
  K  K6  1  0.07768063  0.82713693  0.32854796  1
  K  K7  1  0.75028648  0.32774874  0.17341376  1
  K  K8  1  0.25145787  0.32824920  0.17396082  1
  W  W9  1  0.31578555  0.20729505  0.92474649  1
  W  W10  1  0.81667657  0.20587828  0.92807348  1
  W  W11  1  0.60943103  0.92554892  0.79315432  1
  W  W12  1  0.10981028  0.92760200  0.79203445  1
  W  W13  1  0.81801738  0.42370062  0.70925458  1
  W  W14  1  0.31428676  0.42367996  0.70830772  1
  W  W15  1  0.89697243  0.71123556  0.57875479  1
  W  W16  1  0.39091784  0.70862226  0.57582906  1
  W  W17  1  -0.00000000  0.00000000  0.50000000  1
  W  W18  1  0.50000000  0.00000000  0.50000000  1
  W  W19  1  0.10302757  0.28876444  0.42124521  1
  W  W20  1  0.60908216  0.29137774  0.42417094  1
  W  W21  1  0.68571324  0.57632004  0.29169228  1
  W  W22  1  0.18198262  0.57629938  0.29074542  1
  W  W23  1  0.89018972  0.07239800  0.20796555  1
  W  W24  1  0.39056897  0.07445108  0.20684568  1
  W  W25  1  0.68421445  0.79270495  0.07525351  1
  W  W26  1  0.18332343  0.79412172  0.07192652  1
  W  W27  1  0.50000000  0.50000000  -0.00000000  1
  W  W28  1  0.00000000  0.50000000  -0.00000000  1
  O  O29  1  0.14435125  0.85411891  0.93499551  1
  O  O30  1  0.64263695  0.85560768  0.92871928  1
  O  O31  1  0.56719018  0.20792330  0.92621850  1
  O  O32  1  0.06625285  0.20801836  0.92572847  1
  O  O33  1  0.71153646  0.07080965  0.85309186  1
  O  O34  1  0.21625154  0.07310360  0.85944179  1
  O  O35  1  0.42306202  0.50034457  0.84577256  1
  O  O36  1  0.92408863  0.50285111  0.84595647  1
  O  O37  1  0.78827277  0.28836852  0.79005930  1
  O  O38  1  0.28802929  0.28494983  0.79142810  1
  O  O39  1  0.35845822  0.92609071  0.79338578  1
  O  O40  1  0.86119111  0.92668931  0.79329921  1
  O  O41  1  0.06215884  0.42393229  0.71255612  1
  O  O42  1  0.57292107  0.42522794  0.70997991  1
  O  O43  1  0.99798456  0.78349721  0.71399797  1
  O  O44  1  0.50459908  0.79274355  0.71581343  1
  O  O45  1  0.07861846  0.00417387  0.65261506  1
  O  O46  1  0.57745390  0.00015992  0.65514883  1
  O  O47  1  0.85509629  0.56850376  0.64320511  1
  O  O48  1  0.36049939  0.57444856  0.64482127  1
  O  O49  1  0.13717162  0.70806418  0.57799201  1
  O  O50  1  0.64725478  0.70640623  0.57550418  1
  O  O51  1  0.21470169  0.35931089  0.57166000  1
  O  O52  1  0.71440611  0.35618670  0.57375407  1
  O  O53  1  0.74306599  0.99972378  0.50014460  1
  O  O54  1  0.08032105  0.16038532  0.50148455  1
  O  O55  1  0.25693401  0.00027622  0.49985540  1
  O  O56  1  0.57869207  0.15590658  0.50064381  1
  O  O57  1  0.42130793  0.84409342  0.49935619  1
  O  O58  1  0.91967895  0.83961468  0.49851545  1
  O  O59  1  0.78529831  0.64068911  0.42834000  1
  O  O60  1  0.28559389  0.64381330  0.42624593  1
  O  O61  1  0.35274522  0.29359377  0.42449582  1
  O  O62  1  0.86282838  0.29193582  0.42200799  1
  O  O63  1  0.63950061  0.42555144  0.35517873  1
  O  O64  1  0.14490371  0.43149624  0.35679489  1
  O  O65  1  0.92138154  0.99582613  0.34738494  1
  O  O66  1  0.42254610  0.99984008  0.34485117  1
  O  O67  1  0.00201544  0.21650279  0.28600103  1
  O  O68  1  0.49540092  0.20725645  0.28418657  1
  O  O69  1  0.42707893  0.57477206  0.29002009  1
  O  O70  1  0.93784116  0.57606771  0.28744388  1
  O  O71  1  0.13880889  0.07331069  0.20670179  1
  O  O72  1  0.64154178  0.07390929  0.20661422  1
  O  O73  1  0.71197071  0.71505017  0.20857190  1
  O  O74  1  0.21172723  0.71163148  0.20994070  1
  O  O75  1  0.57693798  0.49965543  0.15422744  1
  O  O76  1  0.07591137  0.49714889  0.15404353  1
  O  O77  1  0.78374846  0.92689640  0.14055821  1
  O  O78  1  0.28846354  0.92919035  0.14690814  1
  O  O79  1  0.43280982  0.79207670  0.07378150  1
  O  O80  1  0.93374715  0.79198164  0.07427153  1
  O  O81  1  0.35736305  0.14439232  0.07128072  1
  O  O82  1  0.85564875  0.14588109  0.06500449  1
  O  O83  1  0.42350078  0.34553260  0.00148783  1
  O  O84  1  0.92237635  0.34652456  0.99842828  1
  O  O85  1  0.25034132  0.49997584  0.99989975  1
  O  O86  1  0.74965868  0.50002416  0.00010025  1
  O  O87  1  0.57649922  0.65446740  0.99851217  1
  O  O88  1  0.07762365  0.65347544  0.00157172  1
