# generated using pymatgen
data_KMo2PdW
_symmetry_space_group_name_H-M   'P 1'
_cell_length_a   4.51979470
_cell_length_b   4.57498693
_cell_length_c   4.51979470
_cell_angle_alpha   90.00000000
_cell_angle_beta   90.00000000
_cell_angle_gamma   90.00000000
_symmetry_Int_Tables_number   1
_chemical_formula_structural   KMo2PdW
_chemical_formula_sum   'K1 Mo2 Pd1 W1'
_cell_volume   93.46032239
_cell_formula_units_Z   1
loop_
 _symmetry_equiv_pos_site_id
 _symmetry_equiv_pos_as_xyz
  1  'x, y, z'
loop_
 _atom_site_type_symbol
 _atom_site_label
 _atom_site_symmetry_multiplicity
 _atom_site_fract_x
 _atom_site_fract_y
 _atom_site_fract_z
 _atom_site_occupancy
  K  K0  1  0.00000000  0.00000000  0.00000000  1
  Mo  Mo1  1  0.00000000  0.00000000  0.50000000  1
  Mo  Mo2  1  0.50000000  0.00000000  0.00000000  1
  Pd  Pd3  1  0.00000000  0.50000000  0.00000000  1
  W  W4  1  0.50000000  0.50000000  0.50000000  1
