# generated using pymatgen
data_Pm12Y7Zr
_symmetry_space_group_name_H-M   'P 1'
_cell_length_a   10.03597066
_cell_length_b   10.03597085
_cell_length_c   10.03597037
_cell_angle_alpha   109.47122122
_cell_angle_beta   109.47122160
_cell_angle_gamma   109.47122150
_symmetry_Int_Tables_number   1
_chemical_formula_structural   Pm12Y7Zr
_chemical_formula_sum   'Pm12 Y7 Zr1'
_cell_volume   778.13731274
_cell_formula_units_Z   1
loop_
 _symmetry_equiv_pos_site_id
 _symmetry_equiv_pos_as_xyz
  1  'x, y, z'
loop_
 _atom_site_type_symbol
 _atom_site_label
 _atom_site_symmetry_multiplicity
 _atom_site_fract_x
 _atom_site_fract_y
 _atom_site_fract_z
 _atom_site_occupancy
  Pm  Pm0  1  0.56242414  0.78110847  0.78131567  1
  Pm  Pm1  1  0.99979279  0.78110847  0.21868433  1
  Pm  Pm2  1  0.43757586  0.21889153  0.21868433  1
  Pm  Pm3  1  0.00020721  0.21889153  0.78131567  1
  Pm  Pm4  1  0.78131567  0.00020721  0.21889154  1
  Pm  Pm5  1  0.78131567  0.56242414  0.78110846  1
  Pm  Pm6  1  0.21868433  0.99979279  0.78110846  1
  Pm  Pm7  1  0.21868433  0.43757586  0.21889154  1
  Pm  Pm8  1  0.78110846  0.78131567  0.56242414  1
  Pm  Pm9  1  0.21889154  0.21868433  0.43757586  1
  Pm  Pm10  1  0.78110846  0.21868433  0.99979279  1
  Pm  Pm11  1  0.21889154  0.78131567  0.00020721  1
  Y  Y12  1  0.50000000  0.50000000  0.00000000  1
  Y  Y13  1  0.00000000  0.50000000  0.50000000  1
  Y  Y14  1  0.50000000  -0.00000000  0.50000000  1
  Y  Y15  1  0.50000000  0.50000000  0.50000000  1
  Y  Y16  1  -0.00000000  -0.00000000  0.50000000  1
  Y  Y17  1  0.50000000  0.00000000  0.00000000  1
  Y  Y18  1  0.00000000  0.50000000  -0.00000000  1
  Zr  Zr19  1  0.00000000  0.00000000  0.00000000  1
