# generated using pymatgen
data_Cs2FeSiO4
_symmetry_space_group_name_H-M   'P 1'
_cell_length_a   5.20622996
_cell_length_b   6.73157324
_cell_length_c   11.23999823
_cell_angle_alpha   84.86182628
_cell_angle_beta   76.60907077
_cell_angle_gamma   67.25053698
_symmetry_Int_Tables_number   1
_chemical_formula_structural   Cs2FeSiO4
_chemical_formula_sum   'Cs4 Fe2 Si2 O8'
_cell_volume   353.39680153
_cell_formula_units_Z   2
loop_
 _symmetry_equiv_pos_site_id
 _symmetry_equiv_pos_as_xyz
  1  'x, y, z'
loop_
 _atom_site_type_symbol
 _atom_site_label
 _atom_site_symmetry_multiplicity
 _atom_site_fract_x
 _atom_site_fract_y
 _atom_site_fract_z
 _atom_site_occupancy
  Cs  Cs0  1  0.17356978  1.00000000  0.65286044  1
  Cs  Cs1  1  0.82643022  0.00000000  0.34713956  1
  Cs  Cs2  1  0.57643022  0.50000000  0.84713956  1
  Cs  Cs3  1  0.92356978  0.50000000  0.15286044  1
  Fe  Fe4  1  0.75000000  0.50000000  0.50000000  1
  Fe  Fe5  1  0.00000000  0.00000000  0.00000000  1
  Si  Si6  1  0.25000000  0.50000000  0.50000000  1
  Si  Si7  1  0.50000000  0.00000000  0.00000000  1
  O  O8  1  0.33624861  0.84658163  0.08107866  1
  O  O9  1  0.26390889  0.15341837  0.91892134  1
  O  O10  1  0.81716976  0.84658163  0.91892134  1
  O  O11  1  0.58267273  0.15341837  0.08107866  1
  O  O12  1  0.41375139  0.65341837  0.41892134  1
  O  O13  1  0.48609111  0.34658163  0.58107866  1
  O  O14  1  0.93283024  0.65341837  0.58107866  1
  O  O15  1  0.16732727  0.34658163  0.41892134  1
