# generated using pymatgen
data_ZrCoIr2
_symmetry_space_group_name_H-M   'P 1'
_cell_length_a   4.78816474
_cell_length_b   4.78816475
_cell_length_c   4.76135158
_cell_angle_alpha   79.31963709
_cell_angle_beta   79.31963707
_cell_angle_gamma   35.09107300
_symmetry_Int_Tables_number   1
_chemical_formula_structural   ZrCoIr2
_chemical_formula_sum   'Zr1 Co1 Ir2'
_cell_volume   61.55750038
_cell_formula_units_Z   1
loop_
 _symmetry_equiv_pos_site_id
 _symmetry_equiv_pos_as_xyz
  1  'x, y, z'
loop_
 _atom_site_type_symbol
 _atom_site_label
 _atom_site_symmetry_multiplicity
 _atom_site_fract_x
 _atom_site_fract_y
 _atom_site_fract_z
 _atom_site_occupancy
  Co  Co0  1  0.25630951  0.25630951  0.22509443  1
  Ir  Ir1  1  0.99747446  0.99747446  0.00272258  1
  Ir  Ir2  1  0.74409170  0.74409170  0.78038991  1
  Zr  Zr3  1  0.50212433  0.50212433  0.49179307  1
