# generated using pymatgen
data_MgRe
_symmetry_space_group_name_H-M   'P 1'
_cell_length_a   8.27527000
_cell_length_b   8.27527000
_cell_length_c   4.59643000
_cell_angle_alpha   90.00000000
_cell_angle_beta   90.00000000
_cell_angle_gamma   90.00000000
_symmetry_Int_Tables_number   1
_chemical_formula_structural   MgRe
_chemical_formula_sum   'Mg8 Re8'
_cell_volume   314.76395650
_cell_formula_units_Z   8
loop_
 _symmetry_equiv_pos_site_id
 _symmetry_equiv_pos_as_xyz
  1  'x, y, z'
loop_
 _atom_site_type_symbol
 _atom_site_label
 _atom_site_symmetry_multiplicity
 _atom_site_fract_x
 _atom_site_fract_y
 _atom_site_fract_z
 _atom_site_occupancy
  Mg  Mg0  1  0.87638000  0.76625000  0.50000000  1
  Mg  Mg1  1  0.12362000  0.23375000  0.50000000  1
  Mg  Mg2  1  0.23375000  0.87638000  0.50000000  1
  Mg  Mg3  1  0.76625000  0.12362000  0.50000000  1
  Mg  Mg4  1  0.93687000  0.33593000  0.00000000  1
  Mg  Mg5  1  0.06313000  0.66407000  0.00000000  1
  Mg  Mg6  1  0.66407000  0.93687000  0.00000000  1
  Mg  Mg7  1  0.33593000  0.06313000  0.00000000  1
  Re  Re8  1  0.71597000  0.45817000  0.50000000  1
  Re  Re9  1  0.28403000  0.54183000  0.50000000  1
  Re  Re10  1  0.54183000  0.71597000  0.50000000  1
  Re  Re11  1  0.45817000  0.28403000  0.50000000  1
  Re  Re12  1  0.70243000  0.59499000  0.00000000  1
  Re  Re13  1  0.29757000  0.40501000  0.00000000  1
  Re  Re14  1  0.40501000  0.70243000  0.00000000  1
  Re  Re15  1  0.59499000  0.29757000  0.00000000  1
