# generated using pymatgen
data_MgTeAs
_symmetry_space_group_name_H-M   'P 1'
_cell_length_a   8.20489217
_cell_length_b   8.20489216
_cell_length_c   8.20489216
_cell_angle_alpha   157.85837348
_cell_angle_beta   157.85837345
_cell_angle_gamma   31.51425766
_symmetry_Int_Tables_number   1
_chemical_formula_structural   MgTeAs
_chemical_formula_sum   'Mg1 Te1 As1'
_cell_volume   78.40544047
_cell_formula_units_Z   1
loop_
 _symmetry_equiv_pos_site_id
 _symmetry_equiv_pos_as_xyz
  1  'x, y, z'
loop_
 _atom_site_type_symbol
 _atom_site_label
 _atom_site_symmetry_multiplicity
 _atom_site_fract_x
 _atom_site_fract_y
 _atom_site_fract_z
 _atom_site_occupancy
  As  As0  1  0.95720178  0.95720178  1.00000000  1
  Mg  Mg1  1  0.34824010  0.34824010  0.00000000  1
  Te  Te2  1  0.69455812  0.69455812  1.00000000  1
