# generated using pymatgen
data_Eu2AgF
_symmetry_space_group_name_H-M   'P 1'
_cell_length_a   4.09667276
_cell_length_b   4.09667276
_cell_length_c   7.43452567
_cell_angle_alpha   74.00718832
_cell_angle_beta   74.00718832
_cell_angle_gamma   59.99999999
_symmetry_Int_Tables_number   1
_chemical_formula_structural   Eu2AgF
_chemical_formula_sum   'Eu2 Ag1 F1'
_cell_volume   102.44126267
_cell_formula_units_Z   1
loop_
 _symmetry_equiv_pos_site_id
 _symmetry_equiv_pos_as_xyz
  1  'x, y, z'
loop_
 _atom_site_type_symbol
 _atom_site_label
 _atom_site_symmetry_multiplicity
 _atom_site_fract_x
 _atom_site_fract_y
 _atom_site_fract_z
 _atom_site_occupancy
  Eu  Eu0  1  0.73658802  0.73658802  0.79023493  1
  Eu  Eu1  1  0.26341198  0.26341198  0.20976507  1
  Ag  Ag2  1  0.50000000  0.50000000  0.50000000  1
  F  F3  1  0.00000000  0.00000000  0.00000000  1
