# generated using pymatgen
data_PaGaRh2
_symmetry_space_group_name_H-M   'P 1'
_cell_length_a   4.07138134
_cell_length_b   4.07137623
_cell_length_c   9.10084864
_cell_angle_alpha   84.65656731
_cell_angle_beta   84.65656364
_cell_angle_gamma   89.29130536
_symmetry_Int_Tables_number   1
_chemical_formula_structural   PaGaRh2
_chemical_formula_sum   'Pa2 Ga2 Rh4'
_cell_volume   149.54748561
_cell_formula_units_Z   2
loop_
 _symmetry_equiv_pos_site_id
 _symmetry_equiv_pos_as_xyz
  1  'x, y, z'
loop_
 _atom_site_type_symbol
 _atom_site_label
 _atom_site_symmetry_multiplicity
 _atom_site_fract_x
 _atom_site_fract_y
 _atom_site_fract_z
 _atom_site_occupancy
  Pa  Pa0  1  0.20108361  0.20108361  0.77267909  1
  Pa  Pa1  1  0.79891639  0.79891639  0.22732091  1
  Ga  Ga2  1  0.28474742  0.28474642  0.34003779  1
  Ga  Ga3  1  0.71525258  0.71525358  0.65996221  1
  Rh  Rh4  1  0.78858416  0.78858416  0.92611170  1
  Rh  Rh5  1  0.75002674  0.24997326  0.50000000  1
  Rh  Rh6  1  0.21141584  0.21141584  0.07388930  1
  Rh  Rh7  1  0.24997326  0.75002674  0.50000000  1
