# generated using pymatgen
data_Tb5Pm8In
_symmetry_space_group_name_H-M   'P 1'
_cell_length_a   9.00020668
_cell_length_b   8.82446088
_cell_length_c   9.00020417
_cell_angle_alpha   84.33869354
_cell_angle_beta   124.21122814
_cell_angle_gamma   123.03291067
_symmetry_Int_Tables_number   1
_chemical_formula_structural   Tb5Pm8In
_chemical_formula_sum   'Tb5 Pm8 In1'
_cell_volume   472.78420962
_cell_formula_units_Z   1
loop_
 _symmetry_equiv_pos_site_id
 _symmetry_equiv_pos_as_xyz
  1  'x, y, z'
loop_
 _atom_site_type_symbol
 _atom_site_label
 _atom_site_symmetry_multiplicity
 _atom_site_fract_x
 _atom_site_fract_y
 _atom_site_fract_z
 _atom_site_occupancy
  Tb  Tb0  1  0.97408280  0.24516229  0.92711294  1
  Tb  Tb1  1  0.93326134  0.82275655  0.20591641  1
  Tb  Tb2  1  0.68195065  0.75483871  0.72892051  1
  Tb  Tb3  1  0.50049209  1.00000000  0.50049109  1
  Tb  Tb4  1  0.38315986  0.17724345  0.11050479  1
  Pm  Pm5  1  0.11573287  0.70083672  0.04430037  1
  Pm  Pm6  1  0.98916457  0.05309927  0.57175343  1
  Pm  Pm7  1  0.01362047  0.43336020  0.33327682  1
  Pm  Pm8  1  0.59346947  0.36686792  0.87384702  1
  Pm  Pm9  1  0.50697811  0.63313208  0.22660155  1
  Pm  Pm10  1  0.51865416  0.94690073  0.93606529  1
  Pm  Pm11  1  0.34346465  0.29916328  0.41489715  1
  Pm  Pm12  1  0.89991661  0.56663980  0.58025927  1
  In  In13  1  0.29605335  0.50000000  0.79605235  1
