# generated using pymatgen
data_Mg3SiNi9As2
_symmetry_space_group_name_H-M   'P 1'
_cell_length_a   5.96546111
_cell_length_b   5.96546111
_cell_length_c   7.88911283
_cell_angle_alpha   90.00000000
_cell_angle_beta   90.00000000
_cell_angle_gamma   119.99999994
_symmetry_Int_Tables_number   1
_chemical_formula_structural   Mg3SiNi9As2
_chemical_formula_sum   'Mg3 Si1 Ni9 As2'
_cell_volume   243.13463927
_cell_formula_units_Z   1
loop_
 _symmetry_equiv_pos_site_id
 _symmetry_equiv_pos_as_xyz
  1  'x, y, z'
loop_
 _atom_site_type_symbol
 _atom_site_label
 _atom_site_symmetry_multiplicity
 _atom_site_fract_x
 _atom_site_fract_y
 _atom_site_fract_z
 _atom_site_occupancy
  Mg  Mg0  1  0.33333333  0.66666667  0.72021643  1
  Mg  Mg1  1  0.00000000  0.00000000  0.00000000  1
  Mg  Mg2  1  0.66666667  0.33333333  0.27978357  1
  Si  Si3  1  0.00000000  0.00000000  0.50000000  1
  Ni  Ni4  1  0.86725969  0.13274031  0.72401330  1
  Ni  Ni5  1  0.86725969  0.73451938  0.72401330  1
  Ni  Ni6  1  0.26548062  0.13274031  0.72401330  1
  Ni  Ni7  1  0.73451938  0.86725969  0.27598670  1
  Ni  Ni8  1  0.13274031  0.26548062  0.27598670  1
  Ni  Ni9  1  0.13274031  0.86725969  0.27598670  1
  Ni  Ni10  1  0.50000000  0.00000000  0.00000000  1
  Ni  Ni11  1  0.00000000  0.50000000  0.00000000  1
  Ni  Ni12  1  0.50000000  0.50000000  0.00000000  1
  As  As13  1  0.33333333  0.66666667  0.19371270  1
  As  As14  1  0.66666667  0.33333333  0.80628730  1
