# generated using pymatgen
data_Li9Fe3(WO4)7
_symmetry_space_group_name_H-M   'P 1'
_cell_length_a   8.54849103
_cell_length_b   8.54849103
_cell_length_c   8.54849103
_cell_angle_alpha   89.73556581
_cell_angle_beta   90.26443421
_cell_angle_gamma   90.26443422
_symmetry_Int_Tables_number   1
_chemical_formula_structural   Li9Fe3(WO4)7
_chemical_formula_sum   'Li9 Fe3 W7 O28'
_cell_volume   624.67560604
_cell_formula_units_Z   1
loop_
 _symmetry_equiv_pos_site_id
 _symmetry_equiv_pos_as_xyz
  1  'x, y, z'
loop_
 _atom_site_type_symbol
 _atom_site_label
 _atom_site_symmetry_multiplicity
 _atom_site_fract_x
 _atom_site_fract_y
 _atom_site_fract_z
 _atom_site_occupancy
  Li  Li0  1  0.09399617  0.36027441  0.64587856  1
  Li  Li1  1  0.09399617  0.64587856  0.36027441  1
  Li  Li2  1  0.35412144  0.36027441  0.90600383  1
  Li  Li3  1  0.35412144  0.90600383  0.36027441  1
  Li  Li4  1  0.64800701  0.08867497  0.35199299  1
  Li  Li5  1  0.64800701  0.35199299  0.08867497  1
  Li  Li6  1  0.63972559  0.64587856  0.90600383  1
  Li  Li7  1  0.63972559  0.90600383  0.64587856  1
  Li  Li8  1  0.91132503  0.35199299  0.35199299  1
  Fe  Fe9  1  0.36299855  0.10273774  0.63700145  1
  Fe  Fe10  1  0.36299855  0.63700145  0.10273774  1
  Fe  Fe11  1  0.89726226  0.63700145  0.63700145  1
  W  W12  1  0.99892657  0.00107343  0.50090126  1
  W  W13  1  0.99892657  0.50090126  0.00107343  1
  W  W14  1  0.35852150  0.35841818  0.35841818  1
  W  W15  1  0.35544064  0.64455936  0.64455936  1
  W  W16  1  0.49909874  0.00107343  0.00107343  1
  W  W17  1  0.64158182  0.35841818  0.64147850  1
  W  W18  1  0.64158182  0.64147850  0.35841818  1
  O  O19  1  0.14919347  0.38083966  0.38083966  1
  O  O20  1  0.13930353  0.61077691  0.61077691  1
  O  O21  1  0.12295236  0.12579583  0.62375718  1
  O  O22  1  0.12295236  0.62375718  0.12579583  1
  O  O23  1  0.11991462  0.37974266  0.88008538  1
  O  O24  1  0.11991462  0.88008538  0.37974266  1
  O  O25  1  0.37624282  0.12579583  0.87704764  1
  O  O26  1  0.37624282  0.87704764  0.12579583  1
  O  O27  1  0.39177612  0.38392017  0.60822388  1
  O  O28  1  0.39177612  0.60822388  0.38392017  1
  O  O29  1  0.38508035  0.14544885  0.38562352  1
  O  O30  1  0.38508035  0.38562352  0.14544885  1
  O  O31  1  0.38922309  0.61077691  0.86069647  1
  O  O32  1  0.38922309  0.86069647  0.61077691  1
  O  O33  1  0.61437648  0.14544885  0.61491965  1
  O  O34  1  0.61437648  0.61491965  0.14544885  1
  O  O35  1  0.61916034  0.38083966  0.85080653  1
  O  O36  1  0.61916034  0.85080653  0.38083966  1
  O  O37  1  0.60728839  0.39271161  0.39271161  1
  O  O38  1  0.61607983  0.60822388  0.60822388  1
  O  O39  1  0.61955753  0.12350427  0.12350427  1
  O  O40  1  0.62025734  0.88008538  0.88008538  1
  O  O41  1  0.87649573  0.12350427  0.38044247  1
  O  O42  1  0.87649573  0.38044247  0.12350427  1
  O  O43  1  0.87420417  0.62375718  0.87704764  1
  O  O44  1  0.87420417  0.87704764  0.62375718  1
  O  O45  1  0.85455115  0.38562352  0.61491965  1
  O  O46  1  0.85455115  0.61491965  0.38562352  1
