# generated using pymatgen
data_LiTaV2O8
_symmetry_space_group_name_H-M   'P 1'
_cell_length_a   5.68501730
_cell_length_b   5.68501730
_cell_length_c   5.68501730
_cell_angle_alpha   106.37622252
_cell_angle_beta   106.37622257
_cell_angle_gamma   115.85615959
_symmetry_Int_Tables_number   1
_chemical_formula_structural   LiTaV2O8
_chemical_formula_sum   'Li1 Ta1 V2 O8'
_cell_volume   140.10866654
_cell_formula_units_Z   1
loop_
 _symmetry_equiv_pos_site_id
 _symmetry_equiv_pos_as_xyz
  1  'x, y, z'
loop_
 _atom_site_type_symbol
 _atom_site_label
 _atom_site_symmetry_multiplicity
 _atom_site_fract_x
 _atom_site_fract_y
 _atom_site_fract_z
 _atom_site_occupancy
  Li  Li0  1  0.00000000  0.00000000  0.00000000  1
  Ta  Ta1  1  0.25000000  0.75000000  0.50000000  1
  V  V2  1  0.75000000  0.25000000  0.50000000  1
  V  V3  1  0.50000000  0.50000000  0.00000000  1
  O  O4  1  0.36562923  0.05115710  0.31447214  1
  O  O5  1  0.33585448  0.54465745  0.20880297  1
  O  O6  1  0.33585448  0.12705151  0.79119703  1
  O  O7  1  0.73668496  0.05115710  0.68552786  1
  O  O8  1  0.87294849  0.66414552  0.20880297  1
  O  O9  1  0.94884290  0.26331504  0.31447214  1
  O  O10  1  0.94884290  0.63437077  0.68552786  1
  O  O11  1  0.45534255  0.66414552  0.79119703  1
