# generated using pymatgen
data_TaTe2
_symmetry_space_group_name_H-M   'P 1'
_cell_length_a   8.56354459
_cell_length_b   8.56354459
_cell_length_c   5.05908174
_cell_angle_alpha   90.00000000
_cell_angle_beta   90.00000000
_cell_angle_gamma   155.68923501
_symmetry_Int_Tables_number   1
_chemical_formula_structural   TaTe2
_chemical_formula_sum   'Ta2 Te4'
_cell_volume   152.73708185
_cell_formula_units_Z   2
loop_
 _symmetry_equiv_pos_site_id
 _symmetry_equiv_pos_as_xyz
  1  'x, y, z'
loop_
 _atom_site_type_symbol
 _atom_site_label
 _atom_site_symmetry_multiplicity
 _atom_site_fract_x
 _atom_site_fract_y
 _atom_site_fract_z
 _atom_site_occupancy
  Ta  Ta0  1  0.05653096  0.94346904  0.25000000  1
  Ta  Ta1  1  0.94346904  0.05653096  0.75000000  1
  Te  Te2  1  0.42736076  0.57263924  0.25000000  1
  Te  Te3  1  0.57263924  0.42736076  0.75000000  1
  Te  Te4  1  0.69356007  0.30643993  0.25000000  1
  Te  Te5  1  0.30643993  0.69356007  0.75000000  1
