# generated using pymatgen
data_K2Rb2Na4Hg
_symmetry_space_group_name_H-M   'P 1'
_cell_length_a   8.66337149
_cell_length_b   8.66337149
_cell_length_c   8.66337149
_cell_angle_alpha   95.86458677
_cell_angle_beta   116.67384545
_cell_angle_gamma   116.67384546
_symmetry_Int_Tables_number   1
_chemical_formula_structural   K2Rb2Na4Hg
_chemical_formula_sum   'K2 Rb2 Na4 Hg1'
_cell_volume   480.16735540
_cell_formula_units_Z   1
loop_
 _symmetry_equiv_pos_site_id
 _symmetry_equiv_pos_as_xyz
  1  'x, y, z'
loop_
 _atom_site_type_symbol
 _atom_site_label
 _atom_site_symmetry_multiplicity
 _atom_site_fract_x
 _atom_site_fract_y
 _atom_site_fract_z
 _atom_site_occupancy
  K  K0  1  0.00000000  0.70675227  0.70675227  1
  K  K1  1  1.00000000  0.29324773  0.29324773  1
  Rb  Rb2  1  0.50000000  0.75000000  0.25000000  1
  Rb  Rb3  1  0.50000000  0.25000000  0.75000000  1
  Na  Na4  1  0.00000000  0.76138718  0.23861282  1
  Na  Na5  1  0.52277437  0.76138718  0.76138718  1
  Na  Na6  1  0.00000000  0.23861282  0.76138718  1
  Na  Na7  1  0.47722563  0.23861282  0.23861282  1
  Hg  Hg8  1  0.00000000  0.00000000  0.00000000  1
