# generated using pymatgen
data_RbInHg2C
_symmetry_space_group_name_H-M   'P 1'
_cell_length_a   4.83294642
_cell_length_b   5.87465566
_cell_length_c   4.83294642
_cell_angle_alpha   90.00000000
_cell_angle_beta   90.00000000
_cell_angle_gamma   90.00000000
_symmetry_Int_Tables_number   1
_chemical_formula_structural   RbInHg2C
_chemical_formula_sum   'Rb1 In1 Hg2 C1'
_cell_volume   137.21651233
_cell_formula_units_Z   1
loop_
 _symmetry_equiv_pos_site_id
 _symmetry_equiv_pos_as_xyz
  1  'x, y, z'
loop_
 _atom_site_type_symbol
 _atom_site_label
 _atom_site_symmetry_multiplicity
 _atom_site_fract_x
 _atom_site_fract_y
 _atom_site_fract_z
 _atom_site_occupancy
  C  C0  1  0.00000000  0.00000000  0.00000000  1
  Hg  Hg1  1  0.00000000  0.00000000  0.50000000  1
  Hg  Hg2  1  0.50000000  0.00000000  0.00000000  1
  Rb  Rb3  1  0.00000000  0.50000000  0.00000000  1
  In  In4  1  0.50000000  0.50000000  0.50000000  1
