# generated using pymatgen
data_Mn2Sn2Rh
_symmetry_space_group_name_H-M   'P 1'
_cell_length_a   7.25860376
_cell_length_b   7.25860376
_cell_length_c   3.22329342
_cell_angle_alpha   90.00000000
_cell_angle_beta   90.00000000
_cell_angle_gamma   90.00000000
_symmetry_Int_Tables_number   1
_chemical_formula_structural   Mn2Sn2Rh
_chemical_formula_sum   'Mn4 Sn4 Rh2'
_cell_volume   169.82671942
_cell_formula_units_Z   2
loop_
 _symmetry_equiv_pos_site_id
 _symmetry_equiv_pos_as_xyz
  1  'x, y, z'
loop_
 _atom_site_type_symbol
 _atom_site_label
 _atom_site_symmetry_multiplicity
 _atom_site_fract_x
 _atom_site_fract_y
 _atom_site_fract_z
 _atom_site_occupancy
  Mn  Mn0  1  0.37889345  0.87889345  0.00000000  1
  Mn  Mn1  1  0.87889345  0.62110655  0.00000000  1
  Mn  Mn2  1  0.62110655  0.12110655  0.00000000  1
  Mn  Mn3  1  0.12110655  0.37889345  0.00000000  1
  Rh  Rh4  1  0.00000000  0.00000000  0.00000000  1
  Rh  Rh5  1  0.50000000  0.50000000  0.00000000  1
  Sn  Sn6  1  0.17947196  0.67947196  0.50000000  1
  Sn  Sn7  1  0.67947196  0.82052804  0.50000000  1
  Sn  Sn8  1  0.82052804  0.32052804  0.50000000  1
  Sn  Sn9  1  0.32052804  0.17947196  0.50000000  1
