# generated using pymatgen
data_In2Si
_symmetry_space_group_name_H-M   'P 1'
_cell_length_a   3.17696098
_cell_length_b   4.16510189
_cell_length_c   5.96465736
_cell_angle_alpha   78.45624721
_cell_angle_beta   90.30046287
_cell_angle_gamma   67.29072445
_symmetry_Int_Tables_number   1
_chemical_formula_structural   In2Si
_chemical_formula_sum   'In2 Si1'
_cell_volume   71.03725312
_cell_formula_units_Z   1
loop_
 _symmetry_equiv_pos_site_id
 _symmetry_equiv_pos_as_xyz
  1  'x, y, z'
loop_
 _atom_site_type_symbol
 _atom_site_label
 _atom_site_symmetry_multiplicity
 _atom_site_fract_x
 _atom_site_fract_y
 _atom_site_fract_z
 _atom_site_occupancy
  Si  Si0  1  0.50000000  0.00000000  0.50000000  1
  In  In1  1  0.16878418  0.65872025  0.20204986  1
  In  In2  1  0.83121582  0.34127975  0.79795014  1
