# generated using pymatgen
data_LaDy(TmCd2)2
_symmetry_space_group_name_H-M   'P 1'
_cell_length_a   5.33183572
_cell_length_b   5.33183573
_cell_length_c   9.25977948
_cell_angle_alpha   73.26754956
_cell_angle_beta   73.26754953
_cell_angle_gamma   60.00000004
_symmetry_Int_Tables_number   1
_chemical_formula_structural   LaDy(TmCd2)2
_chemical_formula_sum   'La1 Dy1 Tm2 Cd4'
_cell_volume   215.00744841
_cell_formula_units_Z   1
loop_
 _symmetry_equiv_pos_site_id
 _symmetry_equiv_pos_as_xyz
  1  'x, y, z'
loop_
 _atom_site_type_symbol
 _atom_site_label
 _atom_site_symmetry_multiplicity
 _atom_site_fract_x
 _atom_site_fract_y
 _atom_site_fract_z
 _atom_site_occupancy
  La  La0  1  0.00000000  0.00000000  0.00000000  1
  Dy  Dy1  1  0.50000000  0.50000000  0.50000000  1
  Tm  Tm2  1  0.75107004  0.75107004  0.74678989  1
  Tm  Tm3  1  0.24892996  0.24892996  0.25321011  1
  Cd  Cd4  1  0.37808479  0.37808479  0.86574563  1
  Cd  Cd5  1  0.87284941  0.87284941  0.38145178  1
  Cd  Cd6  1  0.12715059  0.12715059  0.61854822  1
  Cd  Cd7  1  0.62191521  0.62191521  0.13425437  1
