# generated using pymatgen
data_LiMo
_symmetry_space_group_name_H-M   'P 1'
_cell_length_a   6.56968885
_cell_length_b   7.57647608
_cell_length_c   9.25973397
_cell_angle_alpha   90.00000000
_cell_angle_beta   90.00000000
_cell_angle_gamma   90.00000000
_symmetry_Int_Tables_number   1
_chemical_formula_structural   LiMo
_chemical_formula_sum   'Li16 Mo16'
_cell_volume   460.90409567
_cell_formula_units_Z   16
loop_
 _symmetry_equiv_pos_site_id
 _symmetry_equiv_pos_as_xyz
  1  'x, y, z'
loop_
 _atom_site_type_symbol
 _atom_site_label
 _atom_site_symmetry_multiplicity
 _atom_site_fract_x
 _atom_site_fract_y
 _atom_site_fract_z
 _atom_site_occupancy
  Li  Li0  1  0.14900194  0.00000000  0.00000000  1
  Li  Li1  1  0.85099806  0.00000000  0.00000000  1
  Li  Li2  1  0.10099806  0.75000000  0.25000000  1
  Li  Li3  1  0.39900194  0.75000000  0.25000000  1
  Li  Li4  1  0.14900194  0.50000000  0.50000000  1
  Li  Li5  1  0.85099806  0.50000000  0.50000000  1
  Li  Li6  1  0.10099806  0.25000000  0.75000000  1
  Li  Li7  1  0.39900194  0.25000000  0.75000000  1
  Li  Li8  1  0.64900194  0.00000000  0.50000000  1
  Li  Li9  1  0.35099806  0.00000000  0.50000000  1
  Li  Li10  1  0.60099806  0.75000000  0.75000000  1
  Li  Li11  1  0.89900194  0.75000000  0.75000000  1
  Li  Li12  1  0.64900194  0.50000000  0.00000000  1
  Li  Li13  1  0.35099806  0.50000000  0.00000000  1
  Li  Li14  1  0.60099806  0.25000000  0.25000000  1
  Li  Li15  1  0.89900194  0.25000000  0.25000000  1
  Mo  Mo16  1  0.00000000  0.65695491  0.00000000  1
  Mo  Mo17  1  0.00000000  0.34304509  0.00000000  1
  Mo  Mo18  1  0.25000000  0.09304509  0.25000000  1
  Mo  Mo19  1  0.25000000  0.40695491  0.25000000  1
  Mo  Mo20  1  0.00000000  0.15695491  0.50000000  1
  Mo  Mo21  1  0.00000000  0.84304509  0.50000000  1
  Mo  Mo22  1  0.25000000  0.59304509  0.75000000  1
  Mo  Mo23  1  0.25000000  0.90695491  0.75000000  1
  Mo  Mo24  1  0.50000000  0.65695491  0.50000000  1
  Mo  Mo25  1  0.50000000  0.34304509  0.50000000  1
  Mo  Mo26  1  0.75000000  0.09304509  0.75000000  1
  Mo  Mo27  1  0.75000000  0.40695491  0.75000000  1
  Mo  Mo28  1  0.50000000  0.15695491  0.00000000  1
  Mo  Mo29  1  0.50000000  0.84304509  0.00000000  1
  Mo  Mo30  1  0.75000000  0.59304509  0.25000000  1
  Mo  Mo31  1  0.75000000  0.90695491  0.25000000  1
