# generated using pymatgen
data_NbSeO
_symmetry_space_group_name_H-M   'P 1'
_cell_length_a   2.93928184
_cell_length_b   5.11339233
_cell_length_c   20.58044524
_cell_angle_alpha   90.00000000
_cell_angle_beta   90.00000000
_cell_angle_gamma   90.00523317
_symmetry_Int_Tables_number   1
_chemical_formula_structural   NbSeO
_chemical_formula_sum   'Nb2 Se2 O2'
_cell_volume   309.31794179
_cell_formula_units_Z   2
loop_
 _symmetry_equiv_pos_site_id
 _symmetry_equiv_pos_as_xyz
  1  'x, y, z'
loop_
 _atom_site_type_symbol
 _atom_site_label
 _atom_site_symmetry_multiplicity
 _atom_site_fract_x
 _atom_site_fract_y
 _atom_site_fract_z
 _atom_site_occupancy
  Nb  Nb0  1  0.33231772  0.53485377  0.53944614  1
  Nb  Nb1  1  0.83227437  0.01478267  0.57278500  1
  O  O2  1  0.33219441  0.78752701  0.61635734  1
  O  O3  1  0.83244152  0.27156773  0.50319602  1
  Se  Se4  1  0.33535724  0.76137566  0.42301094  1
  Se  Se5  1  0.33541131  0.42016525  0.34520455  1
