# generated using pymatgen
data_Hf5(Ga6Pt)2
_symmetry_space_group_name_H-M   'P 1'
_cell_length_a   6.97141500
_cell_length_b   7.47029256
_cell_length_c   7.56483462
_cell_angle_alpha   78.84418666
_cell_angle_beta   90.00000000
_cell_angle_gamma   117.81441880
_symmetry_Int_Tables_number   1
_chemical_formula_structural   Hf5(Ga6Pt)2
_chemical_formula_sum   'Hf5 Ga12 Pt2'
_cell_volume   340.00876570
_cell_formula_units_Z   1
loop_
 _symmetry_equiv_pos_site_id
 _symmetry_equiv_pos_as_xyz
  1  'x, y, z'
loop_
 _atom_site_type_symbol
 _atom_site_label
 _atom_site_symmetry_multiplicity
 _atom_site_fract_x
 _atom_site_fract_y
 _atom_site_fract_z
 _atom_site_occupancy
  Hf  Hf0  1  0.16440381  0.32880762  0.75436713  1
  Hf  Hf1  1  0.27844852  0.55689704  0.23729881  1
  Hf  Hf2  1  -0.00000000  -0.00000000  0.50000000  1
  Hf  Hf3  1  0.72155148  0.44310296  0.76270119  1
  Hf  Hf4  1  0.83559619  0.67119238  0.24563287  1
  Ga  Ga5  1  0.05632341  0.11264682  0.14166242  1
  Ga  Ga6  1  0.13870811  0.66069477  0.88395103  1
  Ga  Ga7  1  0.52198666  0.66069477  0.88395103  1
  Ga  Ga8  1  0.13270582  0.68815816  0.52035130  1
  Ga  Ga9  1  0.55545234  0.68815816  0.52035130  1
  Ga  Ga10  1  0.51145121  0.02290243  0.69344176  1
  Ga  Ga11  1  0.48854879  0.97709757  0.30655824  1
  Ga  Ga12  1  0.86729418  0.31184184  0.47964870  1
  Ga  Ga13  1  0.44454766  0.31184184  0.47964870  1
  Ga  Ga14  1  0.86129189  0.33930523  0.11604897  1
  Ga  Ga15  1  0.47801334  0.33930523  0.11604897  1
  Ga  Ga16  1  0.94367659  0.88735318  0.85833758  1
  Pt  Pt17  1  0.69743434  0.00000000  0.00000000  1
  Pt  Pt18  1  0.30256566  0.00000000  0.00000000  1
