# generated using pymatgen
data_Er6BiAs2Se3
_symmetry_space_group_name_H-M   'P 1'
_cell_length_a   4.12215577
_cell_length_b   8.27262530
_cell_length_c   9.22063577
_cell_angle_alpha   102.48967097
_cell_angle_beta   102.91638292
_cell_angle_gamma   90.00000000
_symmetry_Int_Tables_number   1
_chemical_formula_structural   Er6BiAs2Se3
_chemical_formula_sum   'Er6 Bi1 As2 Se3'
_cell_volume   298.83825444
_cell_formula_units_Z   1
loop_
 _symmetry_equiv_pos_site_id
 _symmetry_equiv_pos_as_xyz
  1  'x, y, z'
loop_
 _atom_site_type_symbol
 _atom_site_label
 _atom_site_symmetry_multiplicity
 _atom_site_fract_x
 _atom_site_fract_y
 _atom_site_fract_z
 _atom_site_occupancy
  Er  Er0  1  0.32615040  0.89844486  0.65230079  1
  Er  Er1  1  0.67090151  0.57719025  0.34180401  1
  Er  Er2  1  0.67384960  0.10155514  0.34769921  1
  Er  Er3  1  0.00576211  0.26876667  0.01152323  1
  Er  Er4  1  0.99423789  0.73123333  0.98847677  1
  Er  Er5  1  0.32909849  0.42280975  0.65819599  1
  Bi  Bi6  1  0.50000000  0.00000000  0.00000000  1
  As  As7  1  0.83229079  0.66406459  0.66458158  1
  As  As8  1  0.16770921  0.33593541  0.33541842  1
  Se  Se9  1  0.50000000  0.50000000  0.00000000  1
  Se  Se10  1  0.83661580  0.16648588  0.67323161  1
  Se  Se11  1  0.16338420  0.83351412  0.32676839  1
