# generated using pymatgen
data_LiYZn11
_symmetry_space_group_name_H-M   'P 1'
_cell_length_a   5.23338576
_cell_length_b   6.78086403
_cell_length_c   6.75884688
_cell_angle_alpha   81.50197840
_cell_angle_beta   67.22266617
_cell_angle_gamma   67.56102862
_symmetry_Int_Tables_number   1
_chemical_formula_structural   LiYZn11
_chemical_formula_sum   'Li1 Y1 Zn11'
_cell_volume   204.40226171
_cell_formula_units_Z   1
loop_
 _symmetry_equiv_pos_site_id
 _symmetry_equiv_pos_as_xyz
  1  'x, y, z'
loop_
 _atom_site_type_symbol
 _atom_site_label
 _atom_site_symmetry_multiplicity
 _atom_site_fract_x
 _atom_site_fract_y
 _atom_site_fract_z
 _atom_site_occupancy
  Li  Li0  1  0.50000000  0.50000000  0.00000000  1
  Y  Y1  1  0.00000000  0.00000000  0.00000000  1
  Zn  Zn2  1  0.28602789  0.21989391  0.21612008  1
  Zn  Zn3  1  0.71397211  0.78010609  0.78387992  1
  Zn  Zn4  1  0.49785203  0.78010609  0.21612008  1
  Zn  Zn5  1  0.50214797  0.21989391  0.78387992  1
  Zn  Zn6  1  0.35874392  0.64575728  0.64902991  1
  Zn  Zn7  1  0.64125608  0.35424272  0.35097009  1
  Zn  Zn8  1  0.99222617  0.35424272  0.64902991  1
  Zn  Zn9  1  0.00777383  0.64575728  0.35097009  1
  Zn  Zn10  1  0.00000000  0.50000000  -0.00000000  1
  Zn  Zn11  1  0.50000000  0.00000000  0.50000000  1
  Zn  Zn12  1  0.00000000  -0.00000000  0.50000000  1
