# generated using pymatgen
data_CaBe2SiPt4
_symmetry_space_group_name_H-M   'P 1'
_cell_length_a   4.08793209
_cell_length_b   4.08793209
_cell_length_c   9.08787349
_cell_angle_alpha   77.00233381
_cell_angle_beta   77.00233378
_cell_angle_gamma   60.00000007
_symmetry_Int_Tables_number   1
_chemical_formula_structural   CaBe2SiPt4
_chemical_formula_sum   'Ca1 Be2 Si1 Pt4'
_cell_volume   127.00974702
_cell_formula_units_Z   1
loop_
 _symmetry_equiv_pos_site_id
 _symmetry_equiv_pos_as_xyz
  1  'x, y, z'
loop_
 _atom_site_type_symbol
 _atom_site_label
 _atom_site_symmetry_multiplicity
 _atom_site_fract_x
 _atom_site_fract_y
 _atom_site_fract_z
 _atom_site_occupancy
  Ca  Ca0  1  0.00000000  0.00000000  0.00000000  1
  Be  Be1  1  0.75090732  0.75090732  0.74727805  1
  Be  Be2  1  0.24909268  0.24909268  0.25272195  1
  Si  Si3  1  0.50000000  0.50000000  0.50000000  1
  Pt  Pt4  1  0.40876322  0.40876322  0.77371033  1
  Pt  Pt5  1  0.86498851  0.86498851  0.40503448  1
  Pt  Pt6  1  0.13501149  0.13501149  0.59496552  1
  Pt  Pt7  1  0.59123678  0.59123678  0.22628967  1
