# generated using pymatgen
data_BaScFe2
_symmetry_space_group_name_H-M   'P 1'
_cell_length_a   3.31222563
_cell_length_b   3.31277743
_cell_length_c   8.32187064
_cell_angle_alpha   90.00000000
_cell_angle_beta   90.00000000
_cell_angle_gamma   90.00000000
_symmetry_Int_Tables_number   1
_chemical_formula_structural   BaScFe2
_chemical_formula_sum   'Ba1 Sc1 Fe2'
_cell_volume   91.31310961
_cell_formula_units_Z   1
loop_
 _symmetry_equiv_pos_site_id
 _symmetry_equiv_pos_as_xyz
  1  'x, y, z'
loop_
 _atom_site_type_symbol
 _atom_site_label
 _atom_site_symmetry_multiplicity
 _atom_site_fract_x
 _atom_site_fract_y
 _atom_site_fract_z
 _atom_site_occupancy
  Ba  Ba0  1  0.50000000  0.50000000  0.79891515  1
  Fe  Fe1  1  0.00000000  0.00000000  0.09583532  1
  Fe  Fe2  1  0.50000000  0.50000000  0.20384184  1
  Sc  Sc3  1  0.00000000  0.00000000  0.40140768  1
