# generated using pymatgen
data_Ba2LiTl4Pb3
_symmetry_space_group_name_H-M   'P 1'
_cell_length_a   4.92903140
_cell_length_b   4.92903140
_cell_length_c   14.22021966
_cell_angle_alpha   90.00000000
_cell_angle_beta   90.00000000
_cell_angle_gamma   90.00000000
_symmetry_Int_Tables_number   1
_chemical_formula_structural   Ba2LiTl4Pb3
_chemical_formula_sum   'Ba2 Li1 Tl4 Pb3'
_cell_volume   345.48522143
_cell_formula_units_Z   1
loop_
 _symmetry_equiv_pos_site_id
 _symmetry_equiv_pos_as_xyz
  1  'x, y, z'
loop_
 _atom_site_type_symbol
 _atom_site_label
 _atom_site_symmetry_multiplicity
 _atom_site_fract_x
 _atom_site_fract_y
 _atom_site_fract_z
 _atom_site_occupancy
  Ba  Ba0  1  0.50000000  0.00000000  0.25068466  1
  Ba  Ba1  1  0.00000000  0.50000000  0.74931534  1
  Li  Li2  1  0.50000000  0.50000000  0.50000000  1
  Tl  Tl3  1  0.50000000  0.50000000  0.00000000  1
  Tl  Tl4  1  0.00000000  0.00000000  0.00000000  1
  Tl  Tl5  1  0.50000000  0.00000000  0.63157430  1
  Tl  Tl6  1  0.00000000  0.50000000  0.36842570  1
  Pb  Pb7  1  0.00000000  0.00000000  0.50000000  1
  Pb  Pb8  1  0.50000000  0.00000000  0.85193247  1
  Pb  Pb9  1  0.00000000  0.50000000  0.14806753  1
