# generated using pymatgen
data_TmAsIr
_symmetry_space_group_name_H-M   'P 1'
_cell_length_a   3.94138789
_cell_length_b   3.94117218
_cell_length_c   8.18364866
_cell_angle_alpha   103.92691327
_cell_angle_beta   103.92695008
_cell_angle_gamma   89.99745014
_symmetry_Int_Tables_number   1
_chemical_formula_structural   TmAsIr
_chemical_formula_sum   'Tm2 As2 Ir2'
_cell_volume   119.53191390
_cell_formula_units_Z   2
loop_
 _symmetry_equiv_pos_site_id
 _symmetry_equiv_pos_as_xyz
  1  'x, y, z'
loop_
 _atom_site_type_symbol
 _atom_site_label
 _atom_site_symmetry_multiplicity
 _atom_site_fract_x
 _atom_site_fract_y
 _atom_site_fract_z
 _atom_site_occupancy
  As  As0  1  0.32685144  0.82684936  0.65367946  1
  As  As1  1  0.57684938  0.57685905  0.15368678  1
  Ir  Ir2  1  0.41955283  0.41921361  0.83840248  1
  Ir  Ir3  1  0.16919888  0.66953078  0.33839181  1
  Tm  Tm4  1  0.74639503  0.24630838  0.49307762  1
  Tm  Tm5  1  0.99631343  0.99639982  0.99308185  1
