# generated using pymatgen
data_MgNi2Ir
_symmetry_space_group_name_H-M   'P 1'
_cell_length_a   3.67062793
_cell_length_b   3.67062793
_cell_length_c   9.03276120
_cell_angle_alpha   78.27677806
_cell_angle_beta   78.27677806
_cell_angle_gamma   90.00000000
_symmetry_Int_Tables_number   1
_chemical_formula_structural   MgNi2Ir
_chemical_formula_sum   'Mg2 Ni4 Ir2'
_cell_volume   116.57040208
_cell_formula_units_Z   2
loop_
 _symmetry_equiv_pos_site_id
 _symmetry_equiv_pos_as_xyz
  1  'x, y, z'
loop_
 _atom_site_type_symbol
 _atom_site_label
 _atom_site_symmetry_multiplicity
 _atom_site_fract_x
 _atom_site_fract_y
 _atom_site_fract_z
 _atom_site_occupancy
  Ni  Ni0  1  0.64998364  0.12500000  0.25000000  1
  Ni  Ni1  1  0.10001636  0.62500000  0.25000000  1
  Ni  Ni2  1  0.37500000  0.35001636  0.75000000  1
  Ni  Ni3  1  0.87500000  0.89998364  0.75000000  1
  Mg  Mg4  1  0.50000000  0.50000000  0.00000000  1
  Mg  Mg5  1  0.25000000  0.75000000  0.50000000  1
  Ir  Ir6  1  0.00000000  0.00000000  0.00000000  1
  Ir  Ir7  1  0.75000000  0.25000000  0.50000000  1
