# generated using pymatgen
data_Na10B17C3
_symmetry_space_group_name_H-M   'P 1'
_cell_length_a   7.87296862
_cell_length_b   7.87296486
_cell_length_c   10.51376939
_cell_angle_alpha   122.37575430
_cell_angle_beta   122.37575395
_cell_angle_gamma   37.58349586
_symmetry_Int_Tables_number   1
_chemical_formula_structural   Na10B17C3
_chemical_formula_sum   'Na10 B17 C3'
_cell_volume   327.78136619
_cell_formula_units_Z   1
loop_
 _symmetry_equiv_pos_site_id
 _symmetry_equiv_pos_as_xyz
  1  'x, y, z'
loop_
 _atom_site_type_symbol
 _atom_site_label
 _atom_site_symmetry_multiplicity
 _atom_site_fract_x
 _atom_site_fract_y
 _atom_site_fract_z
 _atom_site_occupancy
  Na  Na0  1  0.00114132  0.99883522  0.99959878  1
  Na  Na1  1  0.80116478  0.79885868  0.50040122  1
  Na  Na2  1  0.19817099  0.20273518  0.00014401  1
  Na  Na3  1  0.99980727  0.00080912  0.49996386  1
  Na  Na4  1  0.40173819  0.39919169  0.00064660  1
  Na  Na5  1  0.20131058  0.19994023  0.50046735  1
  Na  Na6  1  0.60005977  0.59868942  0.99953265  1
  Na  Na7  1  0.40080831  0.39826181  0.49935340  1
  Na  Na8  1  0.79919088  0.80019273  0.00003614  1
  Na  Na9  1  0.59726482  0.60182901  0.49985599  1
  B  B10  1  0.96802472  0.63001580  0.25072036  1
  B  B11  1  0.03428753  0.35360793  0.25041554  1
  B  B12  1  0.17378258  0.80864793  0.75038061  1
  B  B13  1  0.41839132  0.78398885  0.75074677  1
  B  B14  1  0.16998520  0.83197428  0.24927964  1
  B  B15  1  0.22643756  0.57356144  0.25000000  1
  B  B16  1  0.36604947  0.04037693  0.74991771  1
  B  B17  1  0.63685327  0.95962570  0.74966232  1
  B  B18  1  0.44639207  0.76571147  0.24958446  1
  B  B19  1  0.56503770  0.23496230  0.75000000  1
  B  B20  1  0.84037330  0.16314773  0.75033768  1
  B  B21  1  0.57925649  0.22074451  0.25000000  1
  B  B22  1  0.61072621  0.97217429  0.24995190  1
  B  B23  1  0.75962307  0.43395153  0.75008229  1
  B  B24  1  0.01601115  0.38160668  0.74925323  1
  B  B25  1  0.82782671  0.18927279  0.25004810  1
  B  B26  1  0.99135307  0.62621742  0.74961939  1
  C  C27  1  0.24343825  0.55656175  0.75000000  1
  C  C28  1  0.36061988  0.03512843  0.24977577  1
  C  C29  1  0.76487157  0.43938012  0.25022423  1
