# generated using pymatgen
data_Tb4Dy3Ho8
_symmetry_space_group_name_H-M   'P 1'
_cell_length_a   6.88339032
_cell_length_b   6.88338989
_cell_length_c   12.32561511
_cell_angle_alpha   73.78554466
_cell_angle_beta   73.78553721
_cell_angle_gamma   59.99997566
_symmetry_Int_Tables_number   1
_chemical_formula_structural   Tb4Dy3Ho8
_chemical_formula_sum   'Tb4 Dy3 Ho8'
_cell_volume   478.74822241
_cell_formula_units_Z   1
loop_
 _symmetry_equiv_pos_site_id
 _symmetry_equiv_pos_as_xyz
  1  'x, y, z'
loop_
 _atom_site_type_symbol
 _atom_site_label
 _atom_site_symmetry_multiplicity
 _atom_site_fract_x
 _atom_site_fract_y
 _atom_site_fract_z
 _atom_site_occupancy
  Tb  Tb0  1  0.00000000  0.00000000  0.00000000  1
  Tb  Tb1  1  0.33641670  0.33641670  0.99074689  1
  Tb  Tb2  1  0.50000000  0.50000000  0.50000000  1
  Tb  Tb3  1  0.66358330  0.66358330  0.00925311  1
  Dy  Dy4  1  0.50000000  0.00000000  0.50000000  1
  Dy  Dy5  1  0.00000000  0.00000000  0.50000000  1
  Dy  Dy6  1  0.00000000  0.50000000  0.50000000  1
  Ho  Ho7  1  0.24526189  0.24526189  0.26421634  1
  Ho  Ho8  1  0.24794076  0.75039469  0.25127185  1
  Ho  Ho9  1  0.75039369  0.75039369  0.25127185  1
  Ho  Ho10  1  0.75039469  0.24794076  0.25127185  1
  Ho  Ho11  1  0.75473811  0.75473811  0.73578366  1
  Ho  Ho12  1  0.75205924  0.24960531  0.74872815  1
  Ho  Ho13  1  0.24960631  0.24960631  0.74872815  1
  Ho  Ho14  1  0.24960531  0.75205924  0.74872815  1
