# generated using pymatgen
data_Cs(Ag3Te2)2
_symmetry_space_group_name_H-M   'P 1'
_cell_length_a   4.67227056
_cell_length_b   4.67227007
_cell_length_c   15.01926556
_cell_angle_alpha   98.94821793
_cell_angle_beta   98.94831058
_cell_angle_gamma   89.99999315
_symmetry_Int_Tables_number   1
_chemical_formula_structural   Cs(Ag3Te2)2
_chemical_formula_sum   'Cs1 Ag6 Te4'
_cell_volume   319.84149599
_cell_formula_units_Z   1
loop_
 _symmetry_equiv_pos_site_id
 _symmetry_equiv_pos_as_xyz
  1  'x, y, z'
loop_
 _atom_site_type_symbol
 _atom_site_label
 _atom_site_symmetry_multiplicity
 _atom_site_fract_x
 _atom_site_fract_y
 _atom_site_fract_z
 _atom_site_occupancy
  Cs  Cs0  1  0.00000000  0.00000000  0.00000000  1
  Ag  Ag1  1  0.75000000  0.25000000  0.50000000  1
  Ag  Ag2  1  0.87177641  0.37177741  0.74355282  1
  Ag  Ag3  1  0.12822359  0.62822259  0.25644718  1
  Ag  Ag4  1  0.62822359  0.12822359  0.25644718  1
  Ag  Ag5  1  0.37177641  0.87177641  0.74355282  1
  Ag  Ag6  1  0.25000000  0.75000000  0.50000000  1
  Te  Te7  1  0.42512733  0.42512633  0.85025266  1
  Te  Te8  1  0.19176844  0.19176944  0.38353788  1
  Te  Te9  1  0.80823156  0.80823056  0.61646212  1
  Te  Te10  1  0.57487267  0.57487367  0.14974734  1
