# generated using pymatgen
data_Ac3Zn8Sn3
_symmetry_space_group_name_H-M   'P 1'
_cell_length_a   4.65300353
_cell_length_b   8.79401473
_cell_length_c   8.97432487
_cell_angle_alpha   70.07614958
_cell_angle_beta   74.97504294
_cell_angle_gamma   74.65947825
_symmetry_Int_Tables_number   1
_chemical_formula_structural   Ac3Zn8Sn3
_chemical_formula_sum   'Ac3 Zn8 Sn3'
_cell_volume   327.09559947
_cell_formula_units_Z   1
loop_
 _symmetry_equiv_pos_site_id
 _symmetry_equiv_pos_as_xyz
  1  'x, y, z'
loop_
 _atom_site_type_symbol
 _atom_site_label
 _atom_site_symmetry_multiplicity
 _atom_site_fract_x
 _atom_site_fract_y
 _atom_site_fract_z
 _atom_site_occupancy
  Ac  Ac0  1  0.31410038  0.69833093  0.67346830  1
  Ac  Ac1  1  0.68589962  0.30166907  0.32653170  1
  Ac  Ac2  1  0.00000000  0.00000000  0.00000000  1
  Zn  Zn3  1  0.14540171  0.11641196  0.59278463  1
  Zn  Zn4  1  0.85459829  0.88358804  0.40721537  1
  Zn  Zn5  1  0.85694526  0.42045111  0.86565737  1
  Zn  Zn6  1  0.14305474  0.57954889  0.13434263  1
  Zn  Zn7  1  0.49713286  0.71951170  0.28622258  1
  Zn  Zn8  1  0.50286714  0.28048830  0.71377742  1
  Zn  Zn9  1  0.33602093  0.01437860  0.31357953  1
  Zn  Zn10  1  0.66397907  0.98562140  0.68642047  1
  Sn  Sn11  1  -0.00000000  0.50000000  0.50000000  1
  Sn  Sn12  1  0.66160705  0.71320839  0.96357750  1
  Sn  Sn13  1  0.33839295  0.28679161  0.03642250  1
