# generated using pymatgen
data_ThZnGa
_symmetry_space_group_name_H-M   'P 1'
_cell_length_a   4.17280670
_cell_length_b   5.60486898
_cell_length_c   6.10366520
_cell_angle_alpha   96.51954372
_cell_angle_beta   109.98393236
_cell_angle_gamma   90.02319545
_symmetry_Int_Tables_number   1
_chemical_formula_structural   ThZnGa
_chemical_formula_sum   'Th2 Zn2 Ga2'
_cell_volume   133.17223650
_cell_formula_units_Z   2
loop_
 _symmetry_equiv_pos_site_id
 _symmetry_equiv_pos_as_xyz
  1  'x, y, z'
loop_
 _atom_site_type_symbol
 _atom_site_label
 _atom_site_symmetry_multiplicity
 _atom_site_fract_x
 _atom_site_fract_y
 _atom_site_fract_z
 _atom_site_occupancy
  Zn  Zn0  1  0.22156310  0.84431422  0.44328349  1
  Zn  Zn1  1  0.77843690  0.15568578  0.55671651  1
  Ga  Ga2  1  0.58985077  0.81993973  0.18035579  1
  Ga  Ga3  1  0.41014923  0.18006027  0.81964421  1
  Th  Th4  1  0.88761844  0.67244758  0.77513330  1
  Th  Th5  1  0.11238156  0.32755242  0.22486670  1
