# generated using pymatgen
data_Cr2OsSe
_symmetry_space_group_name_H-M   'P 1'
_cell_length_a   2.95624104
_cell_length_b   2.95624104
_cell_length_c   6.17766907
_cell_angle_alpha   90.00000000
_cell_angle_beta   90.00000000
_cell_angle_gamma   90.00000000
_symmetry_Int_Tables_number   1
_chemical_formula_structural   Cr2OsSe
_chemical_formula_sum   'Cr2 Os1 Se1'
_cell_volume   53.98888068
_cell_formula_units_Z   1
loop_
 _symmetry_equiv_pos_site_id
 _symmetry_equiv_pos_as_xyz
  1  'x, y, z'
loop_
 _atom_site_type_symbol
 _atom_site_label
 _atom_site_symmetry_multiplicity
 _atom_site_fract_x
 _atom_site_fract_y
 _atom_site_fract_z
 _atom_site_occupancy
  Cr  Cr0  1  0.00000000  0.00000000  0.99599402  1
  Cr  Cr1  1  0.50000000  0.50000000  0.24401418  1
  Os  Os2  1  0.00000000  0.00000000  0.47161466  1
  Se  Se3  1  0.50000000  0.50000000  0.78837716  1
