# generated using pymatgen
data_Rb2TaB
_symmetry_space_group_name_H-M   'P 1'
_cell_length_a   13.10749057
_cell_length_b   13.10749057
_cell_length_c   9.52172478
_cell_angle_alpha   46.50479084
_cell_angle_beta   46.50479084
_cell_angle_gamma   90.00000000
_symmetry_Int_Tables_number   1
_chemical_formula_structural   Rb2TaB
_chemical_formula_sum   'Rb4 Ta2 B2'
_cell_volume   374.84059498
_cell_formula_units_Z   2
loop_
 _symmetry_equiv_pos_site_id
 _symmetry_equiv_pos_as_xyz
  1  'x, y, z'
loop_
 _atom_site_type_symbol
 _atom_site_label
 _atom_site_symmetry_multiplicity
 _atom_site_fract_x
 _atom_site_fract_y
 _atom_site_fract_z
 _atom_site_occupancy
  B  B0  1  0.50000000  0.50000000  0.00000000  1
  B  B1  1  0.25000000  0.75000000  0.50000000  1
  Rb  Rb2  1  0.41544601  0.12500000  0.25000000  1
  Rb  Rb3  1  0.33455399  0.62500000  0.25000000  1
  Rb  Rb4  1  0.37500000  0.58455399  0.75000000  1
  Rb  Rb5  1  0.87500000  0.66544601  0.75000000  1
  Ta  Ta6  1  0.00000000  0.00000000  0.00000000  1
  Ta  Ta7  1  0.75000000  0.25000000  0.50000000  1
