# generated using pymatgen
data_Pa2Co4Ge3Pd
_symmetry_space_group_name_H-M   'P 1'
_cell_length_a   3.79560052
_cell_length_b   3.79560052
_cell_length_c   10.96337450
_cell_angle_alpha   90.00000000
_cell_angle_beta   90.00000000
_cell_angle_gamma   90.00000000
_symmetry_Int_Tables_number   1
_chemical_formula_structural   Pa2Co4Ge3Pd
_chemical_formula_sum   'Pa2 Co4 Ge3 Pd1'
_cell_volume   157.94476806
_cell_formula_units_Z   1
loop_
 _symmetry_equiv_pos_site_id
 _symmetry_equiv_pos_as_xyz
  1  'x, y, z'
loop_
 _atom_site_type_symbol
 _atom_site_label
 _atom_site_symmetry_multiplicity
 _atom_site_fract_x
 _atom_site_fract_y
 _atom_site_fract_z
 _atom_site_occupancy
  Pa  Pa0  1  0.50000000  0.00000000  0.25780572  1
  Pa  Pa1  1  0.00000000  0.50000000  0.74219428  1
  Co  Co2  1  0.50000000  0.50000000  0.00000000  1
  Co  Co3  1  0.00000000  0.00000000  0.00000000  1
  Co  Co4  1  0.50000000  0.00000000  0.66697774  1
  Co  Co5  1  0.00000000  0.50000000  0.33302226  1
  Ge  Ge6  1  0.00000000  0.00000000  0.50000000  1
  Ge  Ge7  1  0.50000000  0.00000000  0.87968005  1
  Ge  Ge8  1  0.00000000  0.50000000  0.12031995  1
  Pd  Pd9  1  0.50000000  0.50000000  0.50000000  1
