# generated using pymatgen
data_TlPbAuO4
_symmetry_space_group_name_H-M   'P 1'
_cell_length_a   6.43531271
_cell_length_b   7.28818150
_cell_length_c   6.76982101
_cell_angle_alpha   117.67387481
_cell_angle_beta   90.00000000
_cell_angle_gamma   116.19896229
_symmetry_Int_Tables_number   1
_chemical_formula_structural   TlPbAuO4
_chemical_formula_sum   'Tl2 Pb2 Au2 O8'
_cell_volume   243.76154634
_cell_formula_units_Z   2
loop_
 _symmetry_equiv_pos_site_id
 _symmetry_equiv_pos_as_xyz
  1  'x, y, z'
loop_
 _atom_site_type_symbol
 _atom_site_label
 _atom_site_symmetry_multiplicity
 _atom_site_fract_x
 _atom_site_fract_y
 _atom_site_fract_z
 _atom_site_occupancy
  Tl  Tl0  1  0.84209235  0.68418471  0.09209235  1
  Tl  Tl1  1  0.15790765  0.31581529  0.90790765  1
  Pb  Pb2  1  0.50000000  0.00000000  0.50000000  1
  Pb  Pb3  1  0.50000000  0.00000000  0.00000000  1
  Au  Au4  1  0.50000000  0.50000000  0.50000000  1
  Au  Au5  1  -0.00000000  0.50000000  0.50000000  1
  O  O6  1  0.71442946  0.42885891  0.65723320  1
  O  O7  1  0.26145171  0.96299548  0.23149824  1
  O  O8  1  0.70154277  0.96299448  0.23149724  1
  O  O9  1  0.71442946  0.42885891  0.27162571  1
  O  O10  1  0.28557054  0.57114109  0.72837429  1
  O  O11  1  0.73854829  0.03700452  0.76850176  1
  O  O12  1  0.29845723  0.03700552  0.76850276  1
  O  O13  1  0.28557054  0.57114109  0.34276680  1
