# generated using pymatgen
data_Pm3Tl(BO3)4
_symmetry_space_group_name_H-M   'P 1'
_cell_length_a   6.63768001
_cell_length_b   6.63768001
_cell_length_c   6.63768002
_cell_angle_alpha   102.11706029
_cell_angle_beta   102.11706027
_cell_angle_gamma   102.11706026
_symmetry_Int_Tables_number   1
_chemical_formula_structural   Pm3Tl(BO3)4
_chemical_formula_sum   'Pm3 Tl1 B4 O12'
_cell_volume   269.51534571
_cell_formula_units_Z   1
loop_
 _symmetry_equiv_pos_site_id
 _symmetry_equiv_pos_as_xyz
  1  'x, y, z'
loop_
 _atom_site_type_symbol
 _atom_site_label
 _atom_site_symmetry_multiplicity
 _atom_site_fract_x
 _atom_site_fract_y
 _atom_site_fract_z
 _atom_site_occupancy
  Pm  Pm0  1  0.52490417  0.47509583  -0.00000000  1
  Pm  Pm1  1  0.47509583  -0.00000000  0.52490417  1
  Pm  Pm2  1  -0.00000000  0.52490417  0.47509583  1
  Tl  Tl3  1  0.00000000  0.00000000  0.00000000  1
  B  B4  1  0.97773915  0.02226085  0.50000000  1
  B  B5  1  0.02226085  0.50000000  0.97773915  1
  B  B6  1  0.50000000  0.97773915  0.02226085  1
  B  B7  1  0.50000000  0.50000000  0.50000000  1
  O  O8  1  0.50000000  0.36670144  0.63329856  1
  O  O9  1  0.89030347  0.50000000  0.10969653  1
  O  O10  1  0.10969653  0.89030347  0.50000000  1
  O  O11  1  0.50000000  0.10969653  0.89030347  1
  O  O12  1  0.36153120  0.97338893  0.15493837  1
  O  O13  1  0.15493837  0.36153120  0.97338893  1
  O  O14  1  0.97338893  0.15493837  0.36153120  1
  O  O15  1  0.63846880  0.84506163  0.02661107  1
  O  O16  1  0.02661107  0.63846880  0.84506163  1
  O  O17  1  0.84506163  0.02661107  0.63846880  1
  O  O18  1  0.63329856  0.50000000  0.36670144  1
  O  O19  1  0.36670144  0.63329856  0.50000000  1
