# generated using pymatgen
data_NdVB4
_symmetry_space_group_name_H-M   'P 1'
_cell_length_a   3.16287900
_cell_length_b   4.86938907
_cell_length_c   4.86938899
_cell_angle_alpha   69.02213017
_cell_angle_beta   71.04362728
_cell_angle_gamma   71.04362666
_symmetry_Int_Tables_number   1
_chemical_formula_structural   NdVB4
_chemical_formula_sum   'Nd1 V1 B4'
_cell_volume   64.35313347
_cell_formula_units_Z   1
loop_
 _symmetry_equiv_pos_site_id
 _symmetry_equiv_pos_as_xyz
  1  'x, y, z'
loop_
 _atom_site_type_symbol
 _atom_site_label
 _atom_site_symmetry_multiplicity
 _atom_site_fract_x
 _atom_site_fract_y
 _atom_site_fract_z
 _atom_site_occupancy
  B  B0  1  0.25834911  0.40339320  0.08017171  1
  B  B1  1  0.25834899  0.08017180  0.40339335  1
  B  B2  1  0.74162821  0.59660681  0.91982824  1
  B  B3  1  0.74162809  0.91982832  0.59660696  1
  Nd  Nd4  1  0.49998863  0.50000009  0.49999995  1
  V  V5  1  0.99998897  0.99999978  0.99999978  1
