# generated using pymatgen
data_LiY2ZnAu6
_symmetry_space_group_name_H-M   'P 1'
_cell_length_a   7.09509304
_cell_length_b   7.69501769
_cell_length_c   7.60292144
_cell_angle_alpha   39.43563763
_cell_angle_beta   70.57417044
_cell_angle_gamma   93.93765527
_symmetry_Int_Tables_number   1
_chemical_formula_structural   LiY2ZnAu6
_chemical_formula_sum   'Li1 Y2 Zn1 Au6'
_cell_volume   208.74186541
_cell_formula_units_Z   1
loop_
 _symmetry_equiv_pos_site_id
 _symmetry_equiv_pos_as_xyz
  1  'x, y, z'
loop_
 _atom_site_type_symbol
 _atom_site_label
 _atom_site_symmetry_multiplicity
 _atom_site_fract_x
 _atom_site_fract_y
 _atom_site_fract_z
 _atom_site_occupancy
  Li  Li0  1  0.50000000  0.50000000  -0.00000000  1
  Y  Y1  1  0.25287591  0.69544658  0.61075073  1
  Y  Y2  1  0.74712409  0.30455342  0.38924927  1
  Zn  Zn3  1  0.00000000  0.00000000  0.00000000  1
  Au  Au4  1  0.25163662  0.73362724  0.00691924  1
  Au  Au5  1  0.57151296  0.75823786  0.14640443  1
  Au  Au6  1  0.05719157  0.03196827  0.62980240  1
  Au  Au7  1  0.74836338  0.26637276  0.99308076  1
  Au  Au8  1  0.42848704  0.24176214  0.85359557  1
  Au  Au9  1  0.94280843  0.96803173  0.37019760  1
