# generated using pymatgen
data_Yb2Al2Cd
_symmetry_space_group_name_H-M   'P 1'
_cell_length_a   4.91125846
_cell_length_b   7.23465041
_cell_length_c   7.23465041
_cell_angle_alpha   90.00000000
_cell_angle_beta   90.00000000
_cell_angle_gamma   90.00000000
_symmetry_Int_Tables_number   1
_chemical_formula_structural   Yb2Al2Cd
_chemical_formula_sum   'Yb4 Al4 Cd2'
_cell_volume   257.05608579
_cell_formula_units_Z   2
loop_
 _symmetry_equiv_pos_site_id
 _symmetry_equiv_pos_as_xyz
  1  'x, y, z'
loop_
 _atom_site_type_symbol
 _atom_site_label
 _atom_site_symmetry_multiplicity
 _atom_site_fract_x
 _atom_site_fract_y
 _atom_site_fract_z
 _atom_site_occupancy
  Yb  Yb0  1  0.50000000  0.67139406  0.82860594  1
  Yb  Yb1  1  0.50000000  0.82860594  0.32860594  1
  Yb  Yb2  1  0.50000000  0.17139406  0.67139406  1
  Yb  Yb3  1  0.50000000  0.32860594  0.17139406  1
  Al  Al4  1  0.00000000  0.37091543  0.87091543  1
  Al  Al5  1  0.00000000  0.12908457  0.37091543  1
  Al  Al6  1  0.00000000  0.87091543  0.62908457  1
  Al  Al7  1  0.00000000  0.62908457  0.12908457  1
  Cd  Cd8  1  0.00000000  0.00000000  0.00000000  1
  Cd  Cd9  1  0.00000000  0.50000000  0.50000000  1
