# generated using pymatgen
data_Ba3Li2OsO6
_symmetry_space_group_name_H-M   'P 1'
_cell_length_a   5.88104337
_cell_length_b   5.88104336
_cell_length_c   6.86115958
_cell_angle_alpha   90.00000000
_cell_angle_beta   90.00000000
_cell_angle_gamma   120.00000000
_symmetry_Int_Tables_number   1
_chemical_formula_structural   Ba3Li2OsO6
_chemical_formula_sum   'Ba3 Li2 Os1 O6'
_cell_volume   205.51187219
_cell_formula_units_Z   1
loop_
 _symmetry_equiv_pos_site_id
 _symmetry_equiv_pos_as_xyz
  1  'x, y, z'
loop_
 _atom_site_type_symbol
 _atom_site_label
 _atom_site_symmetry_multiplicity
 _atom_site_fract_x
 _atom_site_fract_y
 _atom_site_fract_z
 _atom_site_occupancy
  Ba  Ba0  1  0.33333333  0.66666667  0.64038317  1
  Ba  Ba1  1  0.66666667  0.33333333  0.35961683  1
  Ba  Ba2  1  0.00000000  0.00000000  0.00000000  1
  Li  Li3  1  0.66666667  0.33333333  0.77017788  1
  Li  Li4  1  0.33333333  0.66666667  0.22982212  1
  Os  Os5  1  0.00000000  0.00000000  0.50000000  1
  O  O6  1  0.67937081  0.83968491  0.32645540  1
  O  O7  1  0.16031409  0.32062819  0.32645540  1
  O  O8  1  0.16031409  0.83968491  0.32645540  1
  O  O9  1  0.83968591  0.67937181  0.67354460  1
  O  O10  1  0.32062919  0.16031509  0.67354460  1
  O  O11  1  0.83968591  0.16031509  0.67354460  1
