# generated using pymatgen
data_Cd(AgP)3
_symmetry_space_group_name_H-M   'P 1'
_cell_length_a   5.69145278
_cell_length_b   9.26913455
_cell_length_c   18.74675956
_cell_angle_alpha   90.00000000
_cell_angle_beta   90.00000000
_cell_angle_gamma   89.99922644
_symmetry_Int_Tables_number   1
_chemical_formula_structural   Cd(AgP)3
_chemical_formula_sum   'Cd2 Ag6 P6'
_cell_volume   988.98233118
_cell_formula_units_Z   2
loop_
 _symmetry_equiv_pos_site_id
 _symmetry_equiv_pos_as_xyz
  1  'x, y, z'
loop_
 _atom_site_type_symbol
 _atom_site_label
 _atom_site_symmetry_multiplicity
 _atom_site_fract_x
 _atom_site_fract_y
 _atom_site_fract_z
 _atom_site_occupancy
  Cd  Cd0  1  0.99985690  0.03330981  0.49999999  1
  Cd  Cd1  1  0.00013547  0.53330911  0.49999998  1
  Ag  Ag2  1  0.49980833  0.53328011  0.59105579  1
  Ag  Ag3  1  0.50018653  0.03327891  0.40894385  1
  Ag  Ag4  1  0.50018656  0.03327894  0.59105613  1
  Ag  Ag5  1  0.49980835  0.53328008  0.40894418  1
  Ag  Ag6  1  0.29959135  0.78340726  0.50000001  1
  Ag  Ag7  1  0.70041265  0.28340953  0.50000000  1
  P  P8  1  0.36504814  0.28324423  0.59993028  1
  P  P9  1  0.63495764  0.78324580  0.40006915  1
  P  P10  1  0.63495766  0.78324583  0.59993087  1
  P  P11  1  0.36504813  0.28324422  0.40006976  1
  P  P12  1  0.83250199  0.78323311  0.50000001  1
  P  P13  1  0.16750032  0.28323307  0.50000000  1
