# generated using pymatgen
data_AcTcHO6
_symmetry_space_group_name_H-M   'P 1'
_cell_length_a   5.23718741
_cell_length_b   4.57427198
_cell_length_c   5.23887519
_cell_angle_alpha   84.97789959
_cell_angle_beta   82.78151124
_cell_angle_gamma   62.92802470
_symmetry_Int_Tables_number   1
_chemical_formula_structural   AcTcHO6
_chemical_formula_sum   'Ac1 Tc1 H1 O6'
_cell_volume   110.80216510
_cell_formula_units_Z   1
loop_
 _symmetry_equiv_pos_site_id
 _symmetry_equiv_pos_as_xyz
  1  'x, y, z'
loop_
 _atom_site_type_symbol
 _atom_site_label
 _atom_site_symmetry_multiplicity
 _atom_site_fract_x
 _atom_site_fract_y
 _atom_site_fract_z
 _atom_site_occupancy
  Ac  Ac0  1  0.97367071  0.07544196  0.08443190  1
  Tc  Tc1  1  0.33840213  0.32636602  0.54483537  1
  H  H2  1  0.78030515  0.62897263  0.46685565  1
  O  O3  1  0.95373367  0.55798149  0.34519539  1
  O  O4  1  0.31358250  0.95992547  0.65489546  1
  O  O5  1  0.67014122  0.24205573  0.65838379  1
  O  O6  1  0.07689084  0.56073867  0.79723505  1
  O  O7  1  0.44124380  0.55642642  0.23796735  1
  O  O8  1  0.45179346  0.09214169  0.21011103  1
