# generated using pymatgen
data_Cu2BSe3
_symmetry_space_group_name_H-M   'P 1'
_cell_length_a   6.13721537
_cell_length_b   6.44484458
_cell_length_c   6.44484458
_cell_angle_alpha   119.28732184
_cell_angle_beta   90.00000000
_cell_angle_gamma   90.00000000
_symmetry_Int_Tables_number   1
_chemical_formula_structural   Cu2BSe3
_chemical_formula_sum   'Cu4 B2 Se6'
_cell_volume   222.33158259
_cell_formula_units_Z   2
loop_
 _symmetry_equiv_pos_site_id
 _symmetry_equiv_pos_as_xyz
  1  'x, y, z'
loop_
 _atom_site_type_symbol
 _atom_site_label
 _atom_site_symmetry_multiplicity
 _atom_site_fract_x
 _atom_site_fract_y
 _atom_site_fract_z
 _atom_site_occupancy
  Cu  Cu0  1  0.56304671  0.81861124  0.50116808  1
  Cu  Cu1  1  0.06304671  0.49883192  0.18138876  1
  Cu  Cu2  1  0.56304671  0.50116808  0.81861124  1
  Cu  Cu3  1  0.06304671  0.18138876  0.49883192  1
  B  B4  1  0.04044962  0.84812270  0.84812270  1
  B  B5  1  0.54044962  0.15187730  0.15187730  1
  Se  Se6  1  0.94726942  0.84401952  0.53904047  1
  Se  Se7  1  0.44726942  0.46095953  0.15598048  1
  Se  Se8  1  0.94726942  0.53904047  0.84401952  1
  Se  Se9  1  0.44726942  0.15598048  0.46095953  1
  Se  Se10  1  0.39692712  0.86095703  0.86095703  1
  Se  Se11  1  0.89692712  0.13904297  0.13904297  1
