# generated using pymatgen
data_PrBiHRh
_symmetry_space_group_name_H-M   'P 1'
_cell_length_a   4.83400941
_cell_length_b   4.83514800
_cell_length_c   3.71448103
_cell_angle_alpha   89.99329595
_cell_angle_beta   90.00008935
_cell_angle_gamma   119.99479124
_symmetry_Int_Tables_number   1
_chemical_formula_structural   PrBiHRh
_chemical_formula_sum   'Pr1 Bi1 H1 Rh1'
_cell_volume   75.19151387
_cell_formula_units_Z   1
loop_
 _symmetry_equiv_pos_site_id
 _symmetry_equiv_pos_as_xyz
  1  'x, y, z'
loop_
 _atom_site_type_symbol
 _atom_site_label
 _atom_site_symmetry_multiplicity
 _atom_site_fract_x
 _atom_site_fract_y
 _atom_site_fract_z
 _atom_site_occupancy
  Pr  Pr0  1  0.57192492  0.14384930  0.31018429  1
  Bi  Bi1  1  0.90514361  0.81028491  0.81024569  1
  H  H2  1  0.23873974  0.47748007  0.30931375  1
  Rh  Rh3  1  0.23852174  0.47704572  0.80938628  1
