# generated using pymatgen
data_Ca2TaSi2
_symmetry_space_group_name_H-M   'P 1'
_cell_length_a   6.94215242
_cell_length_b   6.94215242
_cell_length_c   4.57081359
_cell_angle_alpha   90.00000000
_cell_angle_beta   90.00000000
_cell_angle_gamma   90.00000000
_symmetry_Int_Tables_number   1
_chemical_formula_structural   Ca2TaSi2
_chemical_formula_sum   'Ca4 Ta2 Si4'
_cell_volume   220.28341435
_cell_formula_units_Z   2
loop_
 _symmetry_equiv_pos_site_id
 _symmetry_equiv_pos_as_xyz
  1  'x, y, z'
loop_
 _atom_site_type_symbol
 _atom_site_label
 _atom_site_symmetry_multiplicity
 _atom_site_fract_x
 _atom_site_fract_y
 _atom_site_fract_z
 _atom_site_occupancy
  Ca  Ca0  1  0.17499011  0.67499011  0.50000000  1
  Ca  Ca1  1  0.67499011  0.82500989  0.50000000  1
  Ca  Ca2  1  0.82500989  0.32500989  0.50000000  1
  Ca  Ca3  1  0.32500989  0.17499011  0.50000000  1
  Si  Si4  1  0.36973572  0.86973572  0.00000000  1
  Si  Si5  1  0.86973572  0.63026428  0.00000000  1
  Si  Si6  1  0.63026428  0.13026428  0.00000000  1
  Si  Si7  1  0.13026428  0.36973572  0.00000000  1
  Ta  Ta8  1  0.00000000  0.00000000  0.00000000  1
  Ta  Ta9  1  0.50000000  0.50000000  0.00000000  1
