# generated using pymatgen
data_Ce3PuCd
_symmetry_space_group_name_H-M   'P 1'
_cell_length_a   6.50887294
_cell_length_b   6.50887268
_cell_length_c   12.93078089
_cell_angle_alpha   94.50143568
_cell_angle_beta   94.50156068
_cell_angle_gamma   75.83946601
_symmetry_Int_Tables_number   1
_chemical_formula_structural   Ce3PuCd
_chemical_formula_sum   'Ce12 Pu4 Cd4'
_cell_volume   528.53668864
_cell_formula_units_Z   4
loop_
 _symmetry_equiv_pos_site_id
 _symmetry_equiv_pos_as_xyz
  1  'x, y, z'
loop_
 _atom_site_type_symbol
 _atom_site_label
 _atom_site_symmetry_multiplicity
 _atom_site_fract_x
 _atom_site_fract_y
 _atom_site_fract_z
 _atom_site_occupancy
  Ce  Ce0  1  0.71607278  0.77411961  0.74831095  1
  Ce  Ce1  1  0.22588139  0.28392722  0.75168905  1
  Ce  Ce2  1  0.28392822  0.22587939  0.25168805  1
  Ce  Ce3  1  0.77411961  0.71607278  0.24831095  1
  Ce  Ce4  1  0.62733391  0.73627039  0.53365729  1
  Ce  Ce5  1  0.26372861  0.37266609  0.96634272  1
  Ce  Ce6  1  0.37266509  0.26372961  0.46634271  1
  Ce  Ce7  1  0.73627139  0.62733491  0.03365728  1
  Ce  Ce8  1  0.17656861  0.86971813  0.89468701  1
  Ce  Ce9  1  0.13028186  0.82343039  0.60531299  1
  Ce  Ce10  1  0.86971914  0.17656961  0.39468701  1
  Ce  Ce11  1  0.82342939  0.13028187  0.10531299  1
  Pu  Pu12  1  -0.00000000  0.50000000  0.50000100  1
  Pu  Pu13  1  0.50000000  0.00000000  0.99999900  1
  Pu  Pu14  1  0.62777656  0.37222343  0.25000000  1
  Pu  Pu15  1  0.37222344  0.62777657  0.75000000  1
  Cd  Cd16  1  0.75169225  0.26009335  0.85934761  1
  Cd  Cd17  1  0.73990765  0.24830775  0.64065240  1
  Cd  Cd18  1  0.24830775  0.73990665  0.14065239  1
  Cd  Cd19  1  0.26009235  0.75169225  0.35934760  1
