# generated using pymatgen
data_TmIr2
_symmetry_space_group_name_H-M   'P 1'
_cell_length_a   5.33073019
_cell_length_b   5.33072798
_cell_length_c   8.66288940
_cell_angle_alpha   90.00000000
_cell_angle_beta   90.00000000
_cell_angle_gamma   120.00001363
_symmetry_Int_Tables_number   1
_chemical_formula_structural   TmIr2
_chemical_formula_sum   'Tm4 Ir8'
_cell_volume   213.18987028
_cell_formula_units_Z   4
loop_
 _symmetry_equiv_pos_site_id
 _symmetry_equiv_pos_as_xyz
  1  'x, y, z'
loop_
 _atom_site_type_symbol
 _atom_site_label
 _atom_site_symmetry_multiplicity
 _atom_site_fract_x
 _atom_site_fract_y
 _atom_site_fract_z
 _atom_site_occupancy
  Ir  Ir0  1  0.82969184  0.17030793  0.25000000  1
  Ir  Ir1  1  0.82969161  0.65938322  0.25000000  1
  Ir  Ir2  1  0.65938392  0.82969207  0.75000000  1
  Ir  Ir3  1  0.17030816  0.82969207  0.75000000  1
  Ir  Ir4  1  0.34061608  0.17030793  0.25000000  1
  Ir  Ir5  1  0.00000000  0.00000000  0.00000000  1
  Ir  Ir6  1  0.17030839  0.34061678  0.75000000  1
  Ir  Ir7  1  0.00000000  0.00000000  0.50000000  1
  Tm  Tm8  1  0.66666659  0.33333319  0.56676134  1
  Tm  Tm9  1  0.33333341  0.66666681  0.43323866  1
  Tm  Tm10  1  0.33333341  0.66666681  0.06676134  1
  Tm  Tm11  1  0.66666659  0.33333319  0.93323866  1
