# generated using pymatgen
data_SrFeTcAs2
_symmetry_space_group_name_H-M   'P 1'
_cell_length_a   3.96952468
_cell_length_b   3.96952468
_cell_length_c   6.91623572
_cell_angle_alpha   106.67672899
_cell_angle_beta   106.67672899
_cell_angle_gamma   90.00000000
_symmetry_Int_Tables_number   1
_chemical_formula_structural   SrFeTcAs2
_chemical_formula_sum   'Sr1 Fe1 Tc1 As2'
_cell_volume   99.60168269
_cell_formula_units_Z   1
loop_
 _symmetry_equiv_pos_site_id
 _symmetry_equiv_pos_as_xyz
  1  'x, y, z'
loop_
 _atom_site_type_symbol
 _atom_site_label
 _atom_site_symmetry_multiplicity
 _atom_site_fract_x
 _atom_site_fract_y
 _atom_site_fract_z
 _atom_site_occupancy
  Sr  Sr0  1  0.00000000  0.00000000  0.00000000  1
  Fe  Fe1  1  0.75000000  0.25000000  0.50000000  1
  Tc  Tc2  1  0.25000000  0.75000000  0.50000000  1
  As  As3  1  0.63704204  0.63704204  0.27408407  1
  As  As4  1  0.36295796  0.36295796  0.72591593  1
