# generated using pymatgen
data_ZnGaNi3
_symmetry_space_group_name_H-M   'P 1'
_cell_length_a   4.45564981
_cell_length_b   5.94520459
_cell_length_c   5.94520459
_cell_angle_alpha   119.98465519
_cell_angle_beta   90.00000000
_cell_angle_gamma   90.00000000
_symmetry_Int_Tables_number   1
_chemical_formula_structural   ZnGaNi3
_chemical_formula_sum   'Zn2 Ga2 Ni6'
_cell_volume   136.40881074
_cell_formula_units_Z   2
loop_
 _symmetry_equiv_pos_site_id
 _symmetry_equiv_pos_as_xyz
  1  'x, y, z'
loop_
 _atom_site_type_symbol
 _atom_site_label
 _atom_site_symmetry_multiplicity
 _atom_site_fract_x
 _atom_site_fract_y
 _atom_site_fract_z
 _atom_site_occupancy
  Zn  Zn0  1  0.00000000  0.00000000  0.00000000  1
  Zn  Zn1  1  0.50000000  0.00000000  0.00000000  1
  Ga  Ga2  1  0.25000000  0.33348837  0.66651163  1
  Ga  Ga3  1  0.75000000  0.66651163  0.33348837  1
  Ni  Ni4  1  0.25000000  0.79832854  0.20167146  1
  Ni  Ni5  1  0.75000000  0.20167146  0.79832854  1
  Ni  Ni6  1  0.25000000  0.79825534  0.59677347  1
  Ni  Ni7  1  0.75000000  0.20174466  0.40322653  1
  Ni  Ni8  1  0.25000000  0.40322653  0.20174466  1
  Ni  Ni9  1  0.75000000  0.59677347  0.79825534  1
