# generated using pymatgen
data_Ca2IrRu
_symmetry_space_group_name_H-M   'P 1'
_cell_length_a   5.43844414
_cell_length_b   5.43844415
_cell_length_c   5.43844414
_cell_angle_alpha   143.54485621
_cell_angle_beta   125.55391586
_cell_angle_gamma   67.30711375
_symmetry_Int_Tables_number   1
_chemical_formula_structural   Ca2IrRu
_chemical_formula_sum   'Ca2 Ru1 Ir1'
_cell_volume   76.63418809
_cell_formula_units_Z   1
loop_
 _symmetry_equiv_pos_site_id
 _symmetry_equiv_pos_as_xyz
  1  'x, y, z'
loop_
 _atom_site_type_symbol
 _atom_site_label
 _atom_site_symmetry_multiplicity
 _atom_site_fract_x
 _atom_site_fract_y
 _atom_site_fract_z
 _atom_site_occupancy
  Ru  Ru0  1  0.25000000  0.75000000  0.50000000  1
  Ca  Ca1  1  0.00204276  0.00204276  0.00000000  1
  Ca  Ca2  1  0.49795724  0.49795724  1.00000000  1
  Ir  Ir3  1  0.75000000  0.25000000  0.50000000  1
