# generated using pymatgen
data_TlRh3
_symmetry_space_group_name_H-M   'P 1'
_cell_length_a   5.36416391
_cell_length_b   5.36416391
_cell_length_c   5.36416391
_cell_angle_alpha   148.53215694
_cell_angle_beta   126.13548363
_cell_angle_gamma   63.72819904
_symmetry_Int_Tables_number   1
_chemical_formula_structural   TlRh3
_chemical_formula_sum   'Tl1 Rh3'
_cell_volume   64.40333050
_cell_formula_units_Z   1
loop_
 _symmetry_equiv_pos_site_id
 _symmetry_equiv_pos_as_xyz
  1  'x, y, z'
loop_
 _atom_site_type_symbol
 _atom_site_label
 _atom_site_symmetry_multiplicity
 _atom_site_fract_x
 _atom_site_fract_y
 _atom_site_fract_z
 _atom_site_occupancy
  Tl  Tl0  1  0.33764313  0.00000000  0.33764313  1
  Rh  Rh1  1  0.75677820  0.75582938  0.00094882  1
  Rh  Rh2  1  0.24511944  0.24417062  0.00094882  1
  Rh  Rh3  1  0.82712589  0.50000000  0.32712589  1
