# generated using pymatgen
data_TlZnIn
_symmetry_space_group_name_H-M   'P 1'
_cell_length_a   3.38226160
_cell_length_b   3.60290686
_cell_length_c   14.95056701
_cell_angle_alpha   97.40815635
_cell_angle_beta   104.99833991
_cell_angle_gamma   60.02420750
_symmetry_Int_Tables_number   1
_chemical_formula_structural   TlZnIn
_chemical_formula_sum   'Tl2 Zn2 In2'
_cell_volume   152.44090551
_cell_formula_units_Z   2
loop_
 _symmetry_equiv_pos_site_id
 _symmetry_equiv_pos_as_xyz
  1  'x, y, z'
loop_
 _atom_site_type_symbol
 _atom_site_label
 _atom_site_symmetry_multiplicity
 _atom_site_fract_x
 _atom_site_fract_y
 _atom_site_fract_z
 _atom_site_occupancy
  Zn  Zn0  1  0.43812898  0.67662594  0.06623111  1
  Zn  Zn1  1  0.76789819  0.67845405  0.35901360  1
  Tl  Tl2  1  0.24073242  0.04238826  0.51821427  1
  Tl  Tl3  1  0.11885255  0.64169691  0.72597979  1
  In  In4  1  0.57928350  0.03513398  0.91983428  1
  In  In5  1  0.90489769  0.03902855  0.21182601  1
