# generated using pymatgen
data_TbZn3Pt2
_symmetry_space_group_name_H-M   'P 1'
_cell_length_a   4.30711185
_cell_length_b   5.31467330
_cell_length_c   5.31467764
_cell_angle_alpha   59.99851842
_cell_angle_beta   90.00000000
_cell_angle_gamma   90.00000000
_symmetry_Int_Tables_number   1
_chemical_formula_structural   TbZn3Pt2
_chemical_formula_sum   'Tb1 Zn3 Pt2'
_cell_volume   105.35709766
_cell_formula_units_Z   1
loop_
 _symmetry_equiv_pos_site_id
 _symmetry_equiv_pos_as_xyz
  1  'x, y, z'
loop_
 _atom_site_type_symbol
 _atom_site_label
 _atom_site_symmetry_multiplicity
 _atom_site_fract_x
 _atom_site_fract_y
 _atom_site_fract_z
 _atom_site_occupancy
  Zn  Zn0  1  0.50000000  0.50000000  0.00000000  1
  Zn  Zn1  1  0.50000000  0.00000000  0.50000000  1
  Zn  Zn2  1  0.50000000  0.50000000  0.50000000  1
  Tb  Tb3  1  0.00000000  0.00000000  0.00000000  1
  Pt  Pt4  1  0.00000000  0.66666346  0.66666436  1
  Pt  Pt5  1  0.00000000  0.33333654  0.33333564  1
