# generated using pymatgen
data_Sr3(BS3)2
_symmetry_space_group_name_H-M   'P 1'
_cell_length_a   4.85536625
_cell_length_b   4.85546275
_cell_length_c   11.62876953
_cell_angle_alpha   82.30282050
_cell_angle_beta   82.30210189
_cell_angle_gamma   84.09776139
_symmetry_Int_Tables_number   1
_chemical_formula_structural   Sr3(BS3)2
_chemical_formula_sum   'Sr3 B2 S6'
_cell_volume   268.22260314
_cell_formula_units_Z   1
loop_
 _symmetry_equiv_pos_site_id
 _symmetry_equiv_pos_as_xyz
  1  'x, y, z'
loop_
 _atom_site_type_symbol
 _atom_site_label
 _atom_site_symmetry_multiplicity
 _atom_site_fract_x
 _atom_site_fract_y
 _atom_site_fract_z
 _atom_site_occupancy
  Sr  Sr0  1  0.00000000  0.00000000  0.00000000  1
  Sr  Sr1  1  0.82765956  0.82764355  0.35104071  1
  Sr  Sr2  1  0.17234044  0.17235645  0.64895929  1
  B  B3  1  0.24872697  0.24871697  0.23995803  1
  B  B4  1  0.75127303  0.75128303  0.76004197  1
  S  S5  1  0.04242703  0.56533578  0.82697527  1
  S  S6  1  0.56533178  0.04244703  0.82697127  1
  S  S7  1  0.95757297  0.43466422  0.17302473  1
  S  S8  1  0.43466822  0.95755297  0.17302873  1
  S  S9  1  0.69700743  0.69701244  0.61039663  1
  S  S10  1  0.30299257  0.30298756  0.38960337  1
