# generated using pymatgen
data_NaIn2Ni
_symmetry_space_group_name_H-M   'P 1'
_cell_length_a   3.30911414
_cell_length_b   3.30911413
_cell_length_c   10.16339000
_cell_angle_alpha   80.63078889
_cell_angle_beta   80.63078890
_cell_angle_gamma   59.99999992
_symmetry_Int_Tables_number   1
_chemical_formula_structural   NaIn2Ni
_chemical_formula_sum   'Na1 In2 Ni1'
_cell_volume   94.66307576
_cell_formula_units_Z   1
loop_
 _symmetry_equiv_pos_site_id
 _symmetry_equiv_pos_as_xyz
  1  'x, y, z'
loop_
 _atom_site_type_symbol
 _atom_site_label
 _atom_site_symmetry_multiplicity
 _atom_site_fract_x
 _atom_site_fract_y
 _atom_site_fract_z
 _atom_site_occupancy
  Ni  Ni0  1  0.50000000  0.50000000  0.50000000  1
  Na  Na1  1  0.00000000  0.00000000  0.00000000  1
  In  In2  1  0.10452041  0.10452041  0.68643978  1
  In  In3  1  0.89547959  0.89547959  0.31356022  1
