# generated using pymatgen
data_BaMg2In
_symmetry_space_group_name_H-M   'P 1'
_cell_length_a   11.20577536
_cell_length_b   11.20577535
_cell_length_c   11.20577535
_cell_angle_alpha   18.61938695
_cell_angle_beta   18.61938698
_cell_angle_gamma   18.61938698
_symmetry_Int_Tables_number   1
_chemical_formula_structural   BaMg2In
_chemical_formula_sum   'Ba1 Mg2 In1'
_cell_volume   125.31533802
_cell_formula_units_Z   1
loop_
 _symmetry_equiv_pos_site_id
 _symmetry_equiv_pos_as_xyz
  1  'x, y, z'
loop_
 _atom_site_type_symbol
 _atom_site_label
 _atom_site_symmetry_multiplicity
 _atom_site_fract_x
 _atom_site_fract_y
 _atom_site_fract_z
 _atom_site_occupancy
  Ba  Ba0  1  0.25000000  0.25000000  0.25000000  1
  In  In1  1  0.75000000  0.75000000  0.75000000  1
  Mg  Mg2  1  0.01191367  0.01191367  0.01191367  1
  Mg  Mg3  1  0.48808633  0.48808633  0.48808633  1
