# generated using pymatgen
data_AcLaAsI
_symmetry_space_group_name_H-M   'P 1'
_cell_length_a   4.38807111
_cell_length_b   4.38895599
_cell_length_c   8.60341482
_cell_angle_alpha   89.99715951
_cell_angle_beta   104.76691716
_cell_angle_gamma   120.00681814
_symmetry_Int_Tables_number   1
_chemical_formula_structural   AcLaAsI
_chemical_formula_sum   'Ac1 La1 As1 I1'
_cell_volume   137.13004846
_cell_formula_units_Z   1
loop_
 _symmetry_equiv_pos_site_id
 _symmetry_equiv_pos_as_xyz
  1  'x, y, z'
loop_
 _atom_site_type_symbol
 _atom_site_label
 _atom_site_symmetry_multiplicity
 _atom_site_fract_x
 _atom_site_fract_y
 _atom_site_fract_z
 _atom_site_occupancy
  Ac  Ac0  1  0.49968752  0.14778280  0.66291180  1
  La  La1  1  0.10462835  0.95023060  0.06998877  1
  As  As2  1  0.31232429  0.55409570  0.88172032  1
  I  I3  1  0.96125985  0.37869090  0.35503912  1
