# generated using pymatgen
data_DyGeO3
_symmetry_space_group_name_H-M   'P 1'
_cell_length_a   6.38763534
_cell_length_b   4.21580058
_cell_length_c   10.34710351
_cell_angle_alpha   90.00000000
_cell_angle_beta   105.51522969
_cell_angle_gamma   90.00000000
_symmetry_Int_Tables_number   1
_chemical_formula_structural   DyGeO3
_chemical_formula_sum   'Dy4 Ge4 O12'
_cell_volume   268.48340917
_cell_formula_units_Z   4
loop_
 _symmetry_equiv_pos_site_id
 _symmetry_equiv_pos_as_xyz
  1  'x, y, z'
loop_
 _atom_site_type_symbol
 _atom_site_label
 _atom_site_symmetry_multiplicity
 _atom_site_fract_x
 _atom_site_fract_y
 _atom_site_fract_z
 _atom_site_occupancy
  Dy  Dy0  1  0.96345567  0.72530655  0.15082492  1
  Dy  Dy1  1  0.53654433  0.22530655  0.34917508  1
  Dy  Dy2  1  0.03654433  0.27469345  0.84917508  1
  Dy  Dy3  1  0.46345567  0.77469345  0.65082492  1
  Ge  Ge4  1  0.40871510  0.66302771  0.06780796  1
  Ge  Ge5  1  0.09128490  0.16302771  0.43219204  1
  Ge  Ge6  1  0.59128490  0.33697229  0.93219204  1
  Ge  Ge7  1  0.90871510  0.83697229  0.56780796  1
  O  O8  1  0.10911618  0.58751782  0.67033921  1
  O  O9  1  0.39088382  0.08751782  0.82966079  1
  O  O10  1  0.89088382  0.41248218  0.32966079  1
  O  O11  1  0.60911618  0.91248218  0.17033921  1
  O  O12  1  0.79946919  0.06656401  0.67962351  1
  O  O13  1  0.70053081  0.56656401  0.82037649  1
  O  O14  1  0.20053081  0.93343599  0.32037649  1
  O  O15  1  0.29946919  0.43343599  0.17962351  1
  O  O16  1  0.63824832  0.71608528  0.47154816  1
  O  O17  1  0.86175168  0.21608528  0.02845184  1
  O  O18  1  0.36175168  0.28391472  0.52845184  1
  O  O19  1  0.13824832  0.78391472  0.97154816  1
