# generated using pymatgen
data_Na4TlSb5
_symmetry_space_group_name_H-M   'P 1'
_cell_length_a   3.29175639
_cell_length_b   3.29175639
_cell_length_c   24.94394303
_cell_angle_alpha   90.00000000
_cell_angle_beta   90.00000000
_cell_angle_gamma   90.00000000
_symmetry_Int_Tables_number   1
_chemical_formula_structural   Na4TlSb5
_chemical_formula_sum   'Na4 Tl1 Sb5'
_cell_volume   270.28408900
_cell_formula_units_Z   1
loop_
 _symmetry_equiv_pos_site_id
 _symmetry_equiv_pos_as_xyz
  1  'x, y, z'
loop_
 _atom_site_type_symbol
 _atom_site_label
 _atom_site_symmetry_multiplicity
 _atom_site_fract_x
 _atom_site_fract_y
 _atom_site_fract_z
 _atom_site_occupancy
  Na  Na0  1  0.00000000  0.00000000  0.20974943  1
  Na  Na1  1  0.00000000  0.00000000  0.40319376  1
  Na  Na2  1  0.00000000  0.00000000  0.59680624  1
  Na  Na3  1  0.00000000  0.00000000  0.79025057  1
  Tl  Tl4  1  0.00000000  0.00000000  0.00000000  1
  Sb  Sb5  1  0.50000000  0.50000000  0.11202295  1
  Sb  Sb6  1  0.50000000  0.50000000  0.30650426  1
  Sb  Sb7  1  0.50000000  0.50000000  0.50000000  1
  Sb  Sb8  1  0.50000000  0.50000000  0.69349574  1
  Sb  Sb9  1  0.50000000  0.50000000  0.88797705  1
