# generated using pymatgen
data_Ba2CrCl6
_symmetry_space_group_name_H-M   'P 1'
_cell_length_a   6.60978167
_cell_length_b   8.40437635
_cell_length_c   9.59721331
_cell_angle_alpha   90.00000000
_cell_angle_beta   88.69829798
_cell_angle_gamma   90.00000000
_symmetry_Int_Tables_number   1
_chemical_formula_structural   Ba2CrCl6
_chemical_formula_sum   'Ba4 Cr2 Cl12'
_cell_volume   532.99810271
_cell_formula_units_Z   2
loop_
 _symmetry_equiv_pos_site_id
 _symmetry_equiv_pos_as_xyz
  1  'x, y, z'
loop_
 _atom_site_type_symbol
 _atom_site_label
 _atom_site_symmetry_multiplicity
 _atom_site_fract_x
 _atom_site_fract_y
 _atom_site_fract_z
 _atom_site_occupancy
  Ba  Ba0  1  0.04807410  0.61520956  0.73653619  1
  Ba  Ba1  1  0.45192590  0.11520956  0.76346381  1
  Ba  Ba2  1  0.54807410  0.88479044  0.23653619  1
  Ba  Ba3  1  0.95192590  0.38479044  0.26346381  1
  Cr  Cr4  1  0.50000000  0.50000000  -0.00000000  1
  Cr  Cr5  1  -0.00000000  0.00000000  0.50000000  1
  Cl  Cl6  1  0.09363642  0.02247828  0.25996777  1
  Cl  Cl7  1  0.16269685  0.31326597  0.55758797  1
  Cl  Cl8  1  0.19223993  0.35699986  0.95658064  1
  Cl  Cl9  1  0.30776007  0.85699986  0.54341936  1
  Cl  Cl10  1  0.33730315  0.81326597  0.94241203  1
  Cl  Cl11  1  0.40636358  0.52247828  0.24003223  1
  Cl  Cl12  1  0.90636358  0.97752172  0.74003223  1
  Cl  Cl13  1  0.83730315  0.68673403  0.44241203  1
  Cl  Cl14  1  0.80776007  0.64300014  0.04341936  1
  Cl  Cl15  1  0.69223993  0.14300014  0.45658064  1
  Cl  Cl16  1  0.66269685  0.18673403  0.05758797  1
  Cl  Cl17  1  0.59363642  0.47752172  0.75996777  1
