# generated using pymatgen
data_Ni4Se5
_symmetry_space_group_name_H-M   'P 1'
_cell_length_a   6.49231666
_cell_length_b   6.49231559
_cell_length_c   17.31035599
_cell_angle_alpha   90.00000000
_cell_angle_beta   90.00000000
_cell_angle_gamma   120.00000375
_symmetry_Int_Tables_number   1
_chemical_formula_structural   Ni4Se5
_chemical_formula_sum   'Ni4 Se5'
_cell_volume   631.88192303
_cell_formula_units_Z   1
loop_
 _symmetry_equiv_pos_site_id
 _symmetry_equiv_pos_as_xyz
  1  'x, y, z'
loop_
 _atom_site_type_symbol
 _atom_site_label
 _atom_site_symmetry_multiplicity
 _atom_site_fract_x
 _atom_site_fract_y
 _atom_site_fract_z
 _atom_site_occupancy
  Ni  Ni0  1  0.65011441  0.99999999  0.48616841  1
  Ni  Ni1  1  0.00000002  0.65011443  0.48616840  1
  Ni  Ni2  1  0.34988558  0.34988559  0.48616841  1
  Ni  Ni3  1  0.00000000  0.00000000  0.53784626  1
  Se  Se4  1  0.32954533  1.00000000  0.55411638  1
  Se  Se5  1  0.00000000  0.32954532  0.55411638  1
  Se  Se6  1  0.67045467  0.67045468  0.55411638  1
  Se  Se7  1  0.33333333  0.66666668  0.42064969  1
  Se  Se8  1  0.66666666  0.33333332  0.42064968  1
