# generated using pymatgen
data_Bi2O3
_symmetry_space_group_name_H-M   'P 1'
_cell_length_a   3.73453796
_cell_length_b   3.93040994
_cell_length_c   19.49436824
_cell_angle_alpha   90.00000000
_cell_angle_beta   90.00000000
_cell_angle_gamma   63.50147744
_symmetry_Int_Tables_number   1
_chemical_formula_structural   Bi2O3
_chemical_formula_sum   'Bi2 O3'
_cell_volume   256.08294754
_cell_formula_units_Z   1
loop_
 _symmetry_equiv_pos_site_id
 _symmetry_equiv_pos_as_xyz
  1  'x, y, z'
loop_
 _atom_site_type_symbol
 _atom_site_label
 _atom_site_symmetry_multiplicity
 _atom_site_fract_x
 _atom_site_fract_y
 _atom_site_fract_z
 _atom_site_occupancy
  Bi  Bi0  1  0.60742968  0.43131073  0.58148110  1
  Bi  Bi1  1  0.38672417  0.91469552  0.39972426  1
  O  O2  1  0.98757158  0.69395111  0.62119814  1
  O  O3  1  0.05502797  0.56345883  0.39065113  1
  O  O4  1  0.37846508  0.93742494  0.50694536  1
