# generated using pymatgen
data_ZrTa2Ga
_symmetry_space_group_name_H-M   'P 1'
_cell_length_a   7.70964271
_cell_length_b   7.70964271
_cell_length_c   6.08566855
_cell_angle_alpha   50.69665047
_cell_angle_beta   50.69665047
_cell_angle_gamma   90.00000000
_symmetry_Int_Tables_number   1
_chemical_formula_structural   ZrTa2Ga
_chemical_formula_sum   'Zr2 Ta4 Ga2'
_cell_volume   160.77085418
_cell_formula_units_Z   2
loop_
 _symmetry_equiv_pos_site_id
 _symmetry_equiv_pos_as_xyz
  1  'x, y, z'
loop_
 _atom_site_type_symbol
 _atom_site_label
 _atom_site_symmetry_multiplicity
 _atom_site_fract_x
 _atom_site_fract_y
 _atom_site_fract_z
 _atom_site_occupancy
  Ga  Ga0  1  0.50000000  0.50000000  0.00000000  1
  Ga  Ga1  1  0.25000000  0.75000000  0.50000000  1
  Zr  Zr2  1  0.00000000  0.00000000  0.00000000  1
  Zr  Zr3  1  0.75000000  0.25000000  0.50000000  1
  Ta  Ta4  1  0.59027091  0.12500000  0.25000000  1
  Ta  Ta5  1  0.15972909  0.62500000  0.25000000  1
  Ta  Ta6  1  0.37500000  0.40972909  0.75000000  1
  Ta  Ta7  1  0.87500000  0.84027091  0.75000000  1
