# generated using pymatgen
data_Tl2AuI5
_symmetry_space_group_name_H-M   'P 1'
_cell_length_a   8.89735998
_cell_length_b   11.27880360
_cell_length_c   14.28353065
_cell_angle_alpha   90.00000167
_cell_angle_beta   94.86431185
_cell_angle_gamma   90.00000994
_symmetry_Int_Tables_number   1
_chemical_formula_structural   Tl2AuI5
_chemical_formula_sum   'Tl8 Au4 I20'
_cell_volume   1428.21223284
_cell_formula_units_Z   4
loop_
 _symmetry_equiv_pos_site_id
 _symmetry_equiv_pos_as_xyz
  1  'x, y, z'
loop_
 _atom_site_type_symbol
 _atom_site_label
 _atom_site_symmetry_multiplicity
 _atom_site_fract_x
 _atom_site_fract_y
 _atom_site_fract_z
 _atom_site_occupancy
  Tl  Tl0  1  0.75047686  0.88352880  0.01727981  1
  Tl  Tl1  1  0.25047686  0.61647120  0.01727981  1
  Tl  Tl2  1  0.56505144  0.91672272  0.34677386  1
  Tl  Tl3  1  0.06505144  0.58327728  0.34677386  1
  Tl  Tl4  1  0.93494856  0.41672272  0.65322614  1
  Tl  Tl5  1  0.43494856  0.08327728  0.65322614  1
  Tl  Tl6  1  0.74952314  0.38352880  0.98272019  1
  Tl  Tl7  1  0.24952314  0.11647120  0.98272019  1
  Au  Au8  1  0.56606722  0.42482702  0.29082434  1
  Au  Au9  1  0.06606722  0.07517298  0.29082434  1
  Au  Au10  1  0.93393278  0.92482702  0.70917566  1
  Au  Au11  1  0.43393278  0.57517298  0.70917566  1
  I  I12  1  0.94006050  0.16257720  0.12606692  1
  I  I13  1  0.90839480  0.59236659  0.12485270  1
  I  I14  1  0.44006050  0.33742280  0.12606692  1
  I  I15  1  0.40839480  0.90763341  0.12485270  1
  I  I16  1  0.96938720  0.85935993  0.23115920  1
  I  I17  1  0.15244944  0.29125966  0.36024259  1
  I  I18  1  0.46938720  0.64064007  0.23115920  1
  I  I19  1  0.71192856  0.53918252  0.43661059  1
  I  I20  1  0.65244944  0.20874034  0.36024259  1
  I  I21  1  0.21192856  0.96081748  0.43661059  1
  I  I22  1  0.78807144  0.03918252  0.56338941  1
  I  I23  1  0.34755056  0.79125966  0.63975741  1
  I  I24  1  0.28807144  0.46081748  0.56338941  1
  I  I25  1  0.53061280  0.35935993  0.76884080  1
  I  I26  1  0.84755056  0.70874034  0.63975741  1
  I  I27  1  0.03061280  0.14064007  0.76884080  1
  I  I28  1  0.59160520  0.09236659  0.87514730  1
  I  I29  1  0.55993950  0.66257720  0.87393308  1
  I  I30  1  0.09160520  0.40763341  0.87514730  1
  I  I31  1  0.05993950  0.83742280  0.87393308  1
