# generated using pymatgen
data_Ba2Li(GeSe3)2
_symmetry_space_group_name_H-M   'P 1'
_cell_length_a   7.25815088
_cell_length_b   7.08264070
_cell_length_c   7.73566337
_cell_angle_alpha   105.61850030
_cell_angle_beta   90.00000000
_cell_angle_gamma   120.82316899
_symmetry_Int_Tables_number   1
_chemical_formula_structural   Ba2Li(GeSe3)2
_chemical_formula_sum   'Ba2 Li1 Ge2 Se6'
_cell_volume   324.27998850
_cell_formula_units_Z   1
loop_
 _symmetry_equiv_pos_site_id
 _symmetry_equiv_pos_as_xyz
  1  'x, y, z'
loop_
 _atom_site_type_symbol
 _atom_site_label
 _atom_site_symmetry_multiplicity
 _atom_site_fract_x
 _atom_site_fract_y
 _atom_site_fract_z
 _atom_site_occupancy
  Ba  Ba0  1  0.69072323  0.38144746  0.19577670  1
  Ba  Ba1  1  0.30927677  0.61855254  0.80422330  1
  Li  Li2  1  0.50000000  -0.00000000  0.50000000  1
  Ge  Ge3  1  0.97587844  0.95175788  0.65205753  1
  Ge  Ge4  1  0.02412156  0.04824212  0.34794247  1
  Se  Se5  1  0.78051265  0.56102431  0.64490259  1
  Se  Se6  1  0.20636081  0.86294077  0.21162657  1
  Se  Se7  1  0.34342104  0.13705923  0.78837343  1
  Se  Se8  1  0.79363919  0.13705923  0.78837343  1
  Se  Se9  1  0.65657896  0.86294077  0.21162657  1
  Se  Se10  1  0.21948735  0.43897569  0.35509741  1
