# generated using pymatgen
data_ZrScPd
_symmetry_space_group_name_H-M   'P 1'
_cell_length_a   6.71188357
_cell_length_b   3.33266706
_cell_length_c   11.29947104
_cell_angle_alpha   90.00000000
_cell_angle_beta   106.99671383
_cell_angle_gamma   90.00000000
_symmetry_Int_Tables_number   1
_chemical_formula_structural   ZrScPd
_chemical_formula_sum   'Zr4 Sc4 Pd4'
_cell_volume   241.71209736
_cell_formula_units_Z   4
loop_
 _symmetry_equiv_pos_site_id
 _symmetry_equiv_pos_as_xyz
  1  'x, y, z'
loop_
 _atom_site_type_symbol
 _atom_site_label
 _atom_site_symmetry_multiplicity
 _atom_site_fract_x
 _atom_site_fract_y
 _atom_site_fract_z
 _atom_site_occupancy
  Zr  Zr0  1  0.92254036  0.00000000  0.34263441  1
  Zr  Zr1  1  0.07745964  0.00000000  0.65736559  1
  Zr  Zr2  1  0.92254036  0.50000000  0.84263441  1
  Zr  Zr3  1  0.07745964  0.50000000  0.15736559  1
  Sc  Sc4  1  0.57792496  0.00000000  0.65001093  1
  Sc  Sc5  1  0.42207504  0.00000000  0.34998907  1
  Sc  Sc6  1  0.57792496  0.50000000  0.15001093  1
  Sc  Sc7  1  0.42207504  0.50000000  0.84998907  1
  Pd  Pd8  1  0.24828012  0.00000000  0.99691947  1
  Pd  Pd9  1  0.75171988  0.00000000  0.00308053  1
  Pd  Pd10  1  0.24828012  0.50000000  0.49691947  1
  Pd  Pd11  1  0.75171988  0.50000000  0.50308053  1
