# generated using pymatgen
data_K2UBiS5
_symmetry_space_group_name_H-M   'P 1'
_cell_length_a   4.20312451
_cell_length_b   8.87846423
_cell_length_c   14.99660117
_cell_angle_alpha   90.00000000
_cell_angle_beta   90.00000000
_cell_angle_gamma   103.69205088
_symmetry_Int_Tables_number   1
_chemical_formula_structural   K2UBiS5
_chemical_formula_sum   'K4 U2 Bi2 S10'
_cell_volume   543.72886981
_cell_formula_units_Z   2
loop_
 _symmetry_equiv_pos_site_id
 _symmetry_equiv_pos_as_xyz
  1  'x, y, z'
loop_
 _atom_site_type_symbol
 _atom_site_label
 _atom_site_symmetry_multiplicity
 _atom_site_fract_x
 _atom_site_fract_y
 _atom_site_fract_z
 _atom_site_occupancy
  K  K0  1  0.85658802  0.71317603  0.79885315  1
  K  K1  1  0.08659800  0.17319601  0.66544850  1
  K  K2  1  0.14341198  0.28682397  0.29885315  1
  K  K3  1  0.91340200  0.82680399  0.16544850  1
  U  U4  1  0.77621882  0.55243764  0.52925356  1
  U  U5  1  0.22378118  0.44756236  0.02925356  1
  Bi  Bi6  1  0.53355566  0.06711131  0.94153303  1
  Bi  Bi7  1  0.46644434  0.93288869  0.44153303  1
  S  S8  1  0.36595537  0.73191074  0.99301948  1
  S  S9  1  0.69545694  0.39091389  0.91695553  1
  S  S10  1  0.49538062  0.99076125  0.78046097  1
  S  S11  1  0.26702592  0.53405183  0.63908875  1
  S  S12  1  0.92484249  0.84968497  0.55935703  1
  S  S13  1  0.63404463  0.26808926  0.49301948  1
  S  S14  1  0.30454306  0.60908611  0.41695553  1
  S  S15  1  0.50461938  0.00923875  0.28046097  1
  S  S16  1  0.73297408  0.46594817  0.13908875  1
  S  S17  1  0.07515751  0.15031503  0.05935703  1
