# generated using pymatgen
data_MnBiPtO6
_symmetry_space_group_name_H-M   'P 1'
_cell_length_a   4.80130933
_cell_length_b   4.80130933
_cell_length_c   9.64997359
_cell_angle_alpha   90.00000000
_cell_angle_beta   90.00000000
_cell_angle_gamma   90.00000000
_symmetry_Int_Tables_number   1
_chemical_formula_structural   MnBiPtO6
_chemical_formula_sum   'Mn2 Bi2 Pt2 O12'
_cell_volume   222.45670406
_cell_formula_units_Z   2
loop_
 _symmetry_equiv_pos_site_id
 _symmetry_equiv_pos_as_xyz
  1  'x, y, z'
loop_
 _atom_site_type_symbol
 _atom_site_label
 _atom_site_symmetry_multiplicity
 _atom_site_fract_x
 _atom_site_fract_y
 _atom_site_fract_z
 _atom_site_occupancy
  Mn  Mn0  1  0.50000000  0.50000000  0.16508642  1
  Mn  Mn1  1  0.00000000  0.00000000  0.66508642  1
  Bi  Bi2  1  0.50000000  0.50000000  0.49918382  1
  Bi  Bi3  1  0.00000000  0.00000000  0.99918382  1
  Pt  Pt4  1  0.50000000  0.50000000  0.83162542  1
  Pt  Pt5  1  0.00000000  0.00000000  0.33162542  1
  O  O6  1  0.17804823  0.82195177  0.50273813  1
  O  O7  1  0.82195177  0.17804823  0.50273813  1
  O  O8  1  0.32195177  0.32195177  0.00273813  1
  O  O9  1  0.67804823  0.67804823  0.00273813  1
  O  O10  1  0.19422364  0.80577636  0.17667931  1
  O  O11  1  0.80577636  0.19422364  0.17667931  1
  O  O12  1  0.30577636  0.30577636  0.67667931  1
  O  O13  1  0.69422364  0.69422364  0.67667931  1
  O  O14  1  0.80036690  0.19963310  0.82263522  1
  O  O15  1  0.19963310  0.80036690  0.82263522  1
  O  O16  1  0.69963310  0.69963310  0.32263522  1
  O  O17  1  0.30036690  0.30036690  0.32263522  1
