# generated using pymatgen
data_Y6Pd2Rh
_symmetry_space_group_name_H-M   'P 1'
_cell_length_a   8.38993873
_cell_length_b   8.38993968
_cell_length_c   8.38993955
_cell_angle_alpha   109.11920535
_cell_angle_beta   110.32135240
_cell_angle_gamma   108.97649197
_symmetry_Int_Tables_number   1
_chemical_formula_structural   Y6Pd2Rh
_chemical_formula_sum   'Y12 Pd4 Rh2'
_cell_volume   454.55043761
_cell_formula_units_Z   2
loop_
 _symmetry_equiv_pos_site_id
 _symmetry_equiv_pos_as_xyz
  1  'x, y, z'
loop_
 _atom_site_type_symbol
 _atom_site_label
 _atom_site_symmetry_multiplicity
 _atom_site_fract_x
 _atom_site_fract_y
 _atom_site_fract_z
 _atom_site_occupancy
  Y  Y0  1  0.43191318  0.25931203  0.17260115  1
  Y  Y1  1  0.56808782  0.74068797  0.82739885  1
  Y  Y2  1  0.91328911  0.74068797  0.17260115  1
  Y  Y3  1  0.08670989  0.25931103  0.82739885  1
  Y  Y4  1  0.18508523  0.73990936  0.92499359  1
  Y  Y5  1  0.81491477  0.26009164  0.07500641  1
  Y  Y6  1  0.81491477  0.73990836  0.55482412  1
  Y  Y7  1  0.18508523  0.26009064  0.44517588  1
  Y  Y8  1  0.29622130  0.96543877  0.66921747  1
  Y  Y9  1  0.70377870  0.03456123  0.33078253  1
  Y  Y10  1  0.70377870  0.37299617  0.66921747  1
  Y  Y11  1  0.29622130  0.62700283  0.33078253  1
  Pd  Pd12  1  0.50000000  0.36703438  0.86703438  1
  Pd  Pd13  1  0.50000000  0.63296562  0.13296562  1
  Pd  Pd14  1  0.34137092  0.00000000  0.34137092  1
  Pd  Pd15  1  0.65862908  1.00000000  0.65862908  1
  Rh  Rh16  1  0.00000100  0.50000200  0.49999900  1
  Rh  Rh17  1  0.00000000  0.00000000  0.00000000  1
