# generated using pymatgen
data_TcOs2Cl
_symmetry_space_group_name_H-M   'P 1'
_cell_length_a   8.83516160
_cell_length_b   8.83516160
_cell_length_c   8.83516160
_cell_angle_alpha   18.31324681
_cell_angle_beta   18.31324681
_cell_angle_gamma   18.31324681
_symmetry_Int_Tables_number   1
_chemical_formula_structural   TcOs2Cl
_chemical_formula_sum   'Tc1 Os2 Cl1'
_cell_volume   59.47035168
_cell_formula_units_Z   1
loop_
 _symmetry_equiv_pos_site_id
 _symmetry_equiv_pos_as_xyz
  1  'x, y, z'
loop_
 _atom_site_type_symbol
 _atom_site_label
 _atom_site_symmetry_multiplicity
 _atom_site_fract_x
 _atom_site_fract_y
 _atom_site_fract_z
 _atom_site_occupancy
  Cl  Cl0  1  0.75000000  0.75000000  0.75000000  1
  Os  Os1  1  0.99792544  0.99792544  0.99792544  1
  Os  Os2  1  0.50207456  0.50207456  0.50207456  1
  Tc  Tc3  1  0.25000000  0.25000000  0.25000000  1
