# generated using pymatgen
data_In2(NiN)3
_symmetry_space_group_name_H-M   'P 1'
_cell_length_a   3.61259138
_cell_length_b   6.32354203
_cell_length_c   21.84191380
_cell_angle_alpha   90.00000000
_cell_angle_beta   90.00000000
_cell_angle_gamma   148.91832798
_symmetry_Int_Tables_number   1
_chemical_formula_structural   In2(NiN)3
_chemical_formula_sum   'In2 Ni3 N3'
_cell_volume   257.59528450
_cell_formula_units_Z   1
loop_
 _symmetry_equiv_pos_site_id
 _symmetry_equiv_pos_as_xyz
  1  'x, y, z'
loop_
 _atom_site_type_symbol
 _atom_site_label
 _atom_site_symmetry_multiplicity
 _atom_site_fract_x
 _atom_site_fract_y
 _atom_site_fract_z
 _atom_site_occupancy
  In  In0  1  0.19165593  0.17955131  0.64875059  1
  In  In1  1  0.19165597  0.17955134  0.35124941  1
  Ni  Ni2  1  0.16154669  0.49360678  0.56659569  1
  Ni  Ni3  1  0.16154668  0.49360678  0.43340433  1
  Ni  Ni4  1  0.08680816  0.10986426  0.49999999  1
  N  N5  1  0.21409578  0.52800651  0.65662349  1
  N  N6  1  0.21409580  0.52800652  0.34337650  1
  N  N7  1  0.68994498  0.17866647  0.49999999  1
