# generated using pymatgen
data_LiCe2ThHg4
_symmetry_space_group_name_H-M   'P 1'
_cell_length_a   5.29023846
_cell_length_b   5.29023846
_cell_length_c   9.24034190
_cell_angle_alpha   73.36595660
_cell_angle_beta   73.36595660
_cell_angle_gamma   60.00000001
_symmetry_Int_Tables_number   1
_chemical_formula_structural   LiCe2ThHg4
_chemical_formula_sum   'Li1 Ce2 Th1 Hg4'
_cell_volume   211.37087247
_cell_formula_units_Z   1
loop_
 _symmetry_equiv_pos_site_id
 _symmetry_equiv_pos_as_xyz
  1  'x, y, z'
loop_
 _atom_site_type_symbol
 _atom_site_label
 _atom_site_symmetry_multiplicity
 _atom_site_fract_x
 _atom_site_fract_y
 _atom_site_fract_z
 _atom_site_occupancy
  Li  Li0  1  0.50000000  0.50000000  0.50000000  1
  Ce  Ce1  1  0.75089516  0.75089516  0.74731453  1
  Ce  Ce2  1  0.24910484  0.24910484  0.25268547  1
  Th  Th3  1  0.00000000  0.00000000  0.00000000  1
  Hg  Hg4  1  0.38094582  0.38094582  0.85716253  1
  Hg  Hg5  1  0.87208089  0.87208089  0.38375733  1
  Hg  Hg6  1  0.12791911  0.12791911  0.61624267  1
  Hg  Hg7  1  0.61905418  0.61905418  0.14283747  1
