# generated using pymatgen
data_LiNiPdAu
_symmetry_space_group_name_H-M   'P 1'
_cell_length_a   4.29053621
_cell_length_b   4.29053621
_cell_length_c   4.29053622
_cell_angle_alpha   59.99999996
_cell_angle_beta   59.99999997
_cell_angle_gamma   59.99999992
_symmetry_Int_Tables_number   1
_chemical_formula_structural   LiNiPdAu
_chemical_formula_sum   'Li1 Ni1 Pd1 Au1'
_cell_volume   55.84955498
_cell_formula_units_Z   1
loop_
 _symmetry_equiv_pos_site_id
 _symmetry_equiv_pos_as_xyz
  1  'x, y, z'
loop_
 _atom_site_type_symbol
 _atom_site_label
 _atom_site_symmetry_multiplicity
 _atom_site_fract_x
 _atom_site_fract_y
 _atom_site_fract_z
 _atom_site_occupancy
  Ni  Ni0  1  0.50000000  0.50000000  0.50000000  1
  Au  Au1  1  0.25000000  0.25000000  0.25000000  1
  Pd  Pd2  1  0.75000000  0.75000000  0.75000000  1
  Li  Li3  1  0.00000000  0.00000000  0.00000000  1
