# generated using pymatgen
data_CsRb2Br2
_symmetry_space_group_name_H-M   'P 1'
_cell_length_a   10.56336566
_cell_length_b   10.56336566
_cell_length_c   4.41685451
_cell_angle_alpha   90.00000000
_cell_angle_beta   90.00000000
_cell_angle_gamma   90.00000000
_symmetry_Int_Tables_number   1
_chemical_formula_structural   CsRb2Br2
_chemical_formula_sum   'Cs2 Rb4 Br4'
_cell_volume   492.85335924
_cell_formula_units_Z   2
loop_
 _symmetry_equiv_pos_site_id
 _symmetry_equiv_pos_as_xyz
  1  'x, y, z'
loop_
 _atom_site_type_symbol
 _atom_site_label
 _atom_site_symmetry_multiplicity
 _atom_site_fract_x
 _atom_site_fract_y
 _atom_site_fract_z
 _atom_site_occupancy
  Cs  Cs0  1  0.00000000  0.00000000  0.00000000  1
  Cs  Cs1  1  0.50000000  0.50000000  0.00000000  1
  Br  Br2  1  0.14841374  0.64841374  0.50000000  1
  Br  Br3  1  0.64841374  0.85158626  0.50000000  1
  Br  Br4  1  0.85158626  0.35158626  0.50000000  1
  Br  Br5  1  0.35158626  0.14841374  0.50000000  1
  Rb  Rb6  1  0.36995313  0.86995313  0.00000000  1
  Rb  Rb7  1  0.86995313  0.63004687  0.00000000  1
  Rb  Rb8  1  0.63004687  0.13004687  0.00000000  1
  Rb  Rb9  1  0.13004687  0.36995313  0.00000000  1
