# generated using pymatgen
data_NdPbS3
_symmetry_space_group_name_H-M   'P 1'
_cell_length_a   4.35878254
_cell_length_b   7.88573043
_cell_length_c   8.82040076
_cell_angle_alpha   94.63295708
_cell_angle_beta   104.30510138
_cell_angle_gamma   90.00000000
_symmetry_Int_Tables_number   1
_chemical_formula_structural   NdPbS3
_chemical_formula_sum   'Nd2 Pb2 S6'
_cell_volume   292.75365944
_cell_formula_units_Z   2
loop_
 _symmetry_equiv_pos_site_id
 _symmetry_equiv_pos_as_xyz
  1  'x, y, z'
loop_
 _atom_site_type_symbol
 _atom_site_label
 _atom_site_symmetry_multiplicity
 _atom_site_fract_x
 _atom_site_fract_y
 _atom_site_fract_z
 _atom_site_occupancy
  Nd  Nd0  1  0.65807618  0.35520993  0.31615237  1
  Nd  Nd1  1  0.34192382  0.64479007  0.68384763  1
  Pb  Pb2  1  0.89950874  0.09492613  0.79901748  1
  Pb  Pb3  1  0.10049126  0.90507387  0.20098252  1
  S  S4  1  0.94686647  0.75425027  0.89373293  1
  S  S5  1  0.05313353  0.24574973  0.10626707  1
  S  S6  1  0.31312082  0.00082951  0.62624164  1
  S  S7  1  0.68687918  0.99917049  0.37375836  1
  S  S8  1  0.17741106  0.58801030  0.35482213  1
  S  S9  1  0.82258894  0.41198970  0.64517787  1
