# generated using pymatgen
data_Li(FeI3)3
_symmetry_space_group_name_H-M   'P 1'
_cell_length_a   10.32306503
_cell_length_b   12.05677599
_cell_length_c   12.81341644
_cell_angle_alpha   82.48268391
_cell_angle_beta   66.24528045
_cell_angle_gamma   64.65282573
_symmetry_Int_Tables_number   1
_chemical_formula_structural   Li(FeI3)3
_chemical_formula_sum   'Li2 Fe6 I18'
_cell_volume   1317.48688920
_cell_formula_units_Z   2
loop_
 _symmetry_equiv_pos_site_id
 _symmetry_equiv_pos_as_xyz
  1  'x, y, z'
loop_
 _atom_site_type_symbol
 _atom_site_label
 _atom_site_symmetry_multiplicity
 _atom_site_fract_x
 _atom_site_fract_y
 _atom_site_fract_z
 _atom_site_occupancy
  Li  Li0  1  0.80916861  0.66290644  0.90055871  1
  Li  Li1  1  0.62736624  0.16290644  0.40055871  1
  Fe  Fe2  1  0.88428009  0.49671070  0.68851469  1
  Fe  Fe3  1  0.93049451  0.99671070  0.18851469  1
  Fe  Fe4  1  0.98842446  0.94570788  0.83191353  1
  Fe  Fe5  1  0.23395413  0.44570788  0.33191353  1
  Fe  Fe6  1  0.65589257  0.25744940  0.71371956  1
  Fe  Fe7  1  0.37293847  0.75744940  0.21371956  1
  I  I8  1  0.37165090  0.21301885  0.33988384  1
  I  I9  1  0.07544641  0.71301885  0.83988384  1
  I  I10  1  0.51165596  0.36669861  0.90434669  1
  I  I11  1  0.21729874  0.86669861  0.40434670  1
  I  I12  1  0.20530806  0.01146836  0.73700724  1
  I  I13  1  0.04621634  0.51146835  0.23700725  1
  I  I14  1  0.62763750  0.78284968  0.11536267  1
  I  I15  1  0.47414915  0.28284968  0.61536268  1
  I  I16  1  0.77507808  0.90584766  0.35625146  1
  I  I17  1  0.96282279  0.40584767  0.85625146  1
  I  I18  1  0.64775481  0.70201769  0.75606277  1
  I  I19  1  0.89416473  0.20201769  0.25606277  1
  I  I20  1  0.46436549  0.51606022  0.22136178  1
  I  I21  1  0.79821152  0.01606022  0.72136178  1
  I  I22  1  0.86742616  0.33884242  0.57716849  1
  I  I23  1  0.21656293  0.83884242  0.07716849  1
  I  I24  1  0.79955587  0.05792210  0.03569055  1
  I  I25  1  0.10683148  0.55792210  0.53569055  1
