# generated using pymatgen
data_Er2Al2Ga3
_symmetry_space_group_name_H-M   'P 1'
_cell_length_a   6.15140031
_cell_length_b   6.15140031
_cell_length_c   6.15140031
_cell_angle_alpha   55.45119710
_cell_angle_beta   55.45119707
_cell_angle_gamma   55.45119711
_symmetry_Int_Tables_number   1
_chemical_formula_structural   Er2Al2Ga3
_chemical_formula_sum   'Er2 Al2 Ga3'
_cell_volume   147.20437485
_cell_formula_units_Z   1
loop_
 _symmetry_equiv_pos_site_id
 _symmetry_equiv_pos_as_xyz
  1  'x, y, z'
loop_
 _atom_site_type_symbol
 _atom_site_label
 _atom_site_symmetry_multiplicity
 _atom_site_fract_x
 _atom_site_fract_y
 _atom_site_fract_z
 _atom_site_occupancy
  Er  Er0  1  0.50000000  0.50000000  0.50000000  1
  Er  Er1  1  0.00000000  0.00000000  0.00000000  1
  Al  Al2  1  0.69711770  0.69711770  0.69711770  1
  Al  Al3  1  0.30288230  0.30288230  0.30288230  1
  Ga  Ga4  1  -0.00000000  0.00000000  0.50000000  1
  Ga  Ga5  1  -0.00000000  0.50000000  -0.00000000  1
  Ga  Ga6  1  0.50000000  0.00000000  -0.00000000  1
