# generated using pymatgen
data_NbTlTeRuIBr
_symmetry_space_group_name_H-M   'P 1'
_cell_length_a   3.89380189
_cell_length_b   5.24225545
_cell_length_c   9.84165636
_cell_angle_alpha   103.00412938
_cell_angle_beta   92.86280263
_cell_angle_gamma   90.38273563
_symmetry_Int_Tables_number   1
_chemical_formula_structural   NbTlTeRuIBr
_chemical_formula_sum   'Nb1 Tl1 Te1 Ru1 I1 Br1'
_cell_volume   195.46137876
_cell_formula_units_Z   1
loop_
 _symmetry_equiv_pos_site_id
 _symmetry_equiv_pos_as_xyz
  1  'x, y, z'
loop_
 _atom_site_type_symbol
 _atom_site_label
 _atom_site_symmetry_multiplicity
 _atom_site_fract_x
 _atom_site_fract_y
 _atom_site_fract_z
 _atom_site_occupancy
  Ru  Ru0  1  0.30933822  0.02633902  0.55952301  1
  I  I1  1  0.29227748  0.24545162  0.85129584  1
  Nb  Nb2  1  0.83532920  0.82670676  0.41289012  1
  Tl  Tl3  1  0.79862353  0.72248369  0.78675037  1
  Br  Br4  1  0.82424171  0.90756131  0.17478558  1
  Te  Te5  1  0.33176987  0.46892760  0.46639509  1
