# generated using pymatgen
data_Li2Tb4N
_symmetry_space_group_name_H-M   'P 1'
_cell_length_a   4.86540229
_cell_length_b   4.86540229
_cell_length_c   8.12258870
_cell_angle_alpha   72.57253028
_cell_angle_beta   72.57253028
_cell_angle_gamma   90.00000000
_symmetry_Int_Tables_number   1
_chemical_formula_structural   Li2Tb4N
_chemical_formula_sum   'Li2 Tb4 N1'
_cell_volume   174.17994527
_cell_formula_units_Z   1
loop_
 _symmetry_equiv_pos_site_id
 _symmetry_equiv_pos_as_xyz
  1  'x, y, z'
loop_
 _atom_site_type_symbol
 _atom_site_label
 _atom_site_symmetry_multiplicity
 _atom_site_fract_x
 _atom_site_fract_y
 _atom_site_fract_z
 _atom_site_occupancy
  Li  Li0  1  0.63450143  0.63450143  0.73099714  1
  Li  Li1  1  0.36549857  0.36549857  0.26900286  1
  Tb  Tb2  1  0.83706557  0.83706557  0.32586886  1
  Tb  Tb3  1  0.16293443  0.16293443  0.67413114  1
  Tb  Tb4  1  0.00000000  0.50000000  0.00000000  1
  Tb  Tb5  1  0.50000000  0.00000000  0.00000000  1
  N  N6  1  0.00000000  0.00000000  0.00000000  1
