# generated using pymatgen
data_Tm2Cd(Cu4Ni)3
_symmetry_space_group_name_H-M   'P 1'
_cell_length_a   6.39824207
_cell_length_b   6.39824207
_cell_length_c   6.39824207
_cell_angle_alpha   83.41922393
_cell_angle_beta   83.41922395
_cell_angle_gamma   83.41922392
_symmetry_Int_Tables_number   1
_chemical_formula_structural   Tm2Cd(Cu4Ni)3
_chemical_formula_sum   'Tm2 Cd1 Cu12 Ni3'
_cell_volume   257.11787347
_cell_formula_units_Z   1
loop_
 _symmetry_equiv_pos_site_id
 _symmetry_equiv_pos_as_xyz
  1  'x, y, z'
loop_
 _atom_site_type_symbol
 _atom_site_label
 _atom_site_symmetry_multiplicity
 _atom_site_fract_x
 _atom_site_fract_y
 _atom_site_fract_z
 _atom_site_occupancy
  Tm  Tm0  1  0.74165653  0.74165653  0.74165653  1
  Tm  Tm1  1  0.25834347  0.25834347  0.25834347  1
  Cd  Cd2  1  0.00000000  0.00000000  0.00000000  1
  Cu  Cu3  1  0.41822685  0.41822685  0.85939410  1
  Cu  Cu4  1  0.79536340  0.79536340  0.29759940  1
  Cu  Cu5  1  0.29759940  0.79536340  0.79536340  1
  Cu  Cu6  1  0.85939410  0.41822685  0.41822685  1
  Cu  Cu7  1  0.79536340  0.29759940  0.79536340  1
  Cu  Cu8  1  0.41822685  0.85939410  0.41822685  1
  Cu  Cu9  1  0.58177315  0.58177315  0.14060590  1
  Cu  Cu10  1  0.20463660  0.20463660  0.70240060  1
  Cu  Cu11  1  0.70240060  0.20463660  0.20463660  1
  Cu  Cu12  1  0.14060590  0.58177315  0.58177315  1
  Cu  Cu13  1  0.20463660  0.70240060  0.20463660  1
  Cu  Cu14  1  0.58177315  0.14060590  0.58177315  1
  Ni  Ni15  1  0.50000000  0.00000000  0.00000000  1
  Ni  Ni16  1  0.00000000  0.50000000  -0.00000000  1
  Ni  Ni17  1  0.00000000  0.00000000  0.50000000  1
