# generated using pymatgen
data_TaTl3In3Se8
_symmetry_space_group_name_H-M   'P 1'
_cell_length_a   8.03772205
_cell_length_b   8.05190997
_cell_length_c   9.06386636
_cell_angle_alpha   116.38745321
_cell_angle_beta   90.00000000
_cell_angle_gamma   119.94172876
_symmetry_Int_Tables_number   1
_chemical_formula_structural   TaTl3In3Se8
_chemical_formula_sum   'Ta1 Tl3 In3 Se8'
_cell_volume   436.36207277
_cell_formula_units_Z   1
loop_
 _symmetry_equiv_pos_site_id
 _symmetry_equiv_pos_as_xyz
  1  'x, y, z'
loop_
 _atom_site_type_symbol
 _atom_site_label
 _atom_site_symmetry_multiplicity
 _atom_site_fract_x
 _atom_site_fract_y
 _atom_site_fract_z
 _atom_site_occupancy
  Ta  Ta0  1  0.00000000  0.00000000  0.50000000  1
  Tl  Tl1  1  0.00000000  0.00000000  0.00000000  1
  Tl  Tl2  1  -0.00000000  0.50000000  -0.00000000  1
  Tl  Tl3  1  0.50000000  0.50000000  -0.00000000  1
  In  In4  1  0.50000000  0.00000000  0.50000000  1
  In  In5  1  0.50000000  0.50000000  0.50000000  1
  In  In6  1  -0.00000000  0.50000000  0.50000000  1
  Se  Se7  1  0.26655206  0.53310412  0.30021780  1
  Se  Se8  1  0.73344794  0.46689588  0.69978220  1
  Se  Se9  1  0.78074883  0.56149866  0.30676749  1
  Se  Se10  1  0.21925117  0.43850134  0.69323251  1
  Se  Se11  1  0.78036651  0.02590686  0.30655626  1
  Se  Se12  1  0.21963349  0.97409314  0.69344374  1
  Se  Se13  1  0.24554035  0.02590686  0.30655626  1
  Se  Se14  1  0.75445965  0.97409314  0.69344374  1
