# generated using pymatgen
data_KBeZn4
_symmetry_space_group_name_H-M   'P 1'
_cell_length_a   5.36678510
_cell_length_b   5.36678510
_cell_length_c   5.36678510
_cell_angle_alpha   60.00000000
_cell_angle_beta   60.00000000
_cell_angle_gamma   60.00000000
_symmetry_Int_Tables_number   1
_chemical_formula_structural   KBeZn4
_chemical_formula_sum   'K1 Be1 Zn4'
_cell_volume   109.30187679
_cell_formula_units_Z   1
loop_
 _symmetry_equiv_pos_site_id
 _symmetry_equiv_pos_as_xyz
  1  'x, y, z'
loop_
 _atom_site_type_symbol
 _atom_site_label
 _atom_site_symmetry_multiplicity
 _atom_site_fract_x
 _atom_site_fract_y
 _atom_site_fract_z
 _atom_site_occupancy
  K  K0  1  0.00000000  0.00000000  0.00000000  1
  Be  Be1  1  0.75000000  0.75000000  0.75000000  1
  Zn  Zn2  1  0.87129438  0.37623521  0.37623521  1
  Zn  Zn3  1  0.37623521  0.37623521  0.87129438  1
  Zn  Zn4  1  0.37623521  0.87129438  0.37623521  1
  Zn  Zn5  1  0.37623521  0.37623521  0.37623521  1
