# generated using pymatgen
data_Pm5Nd2DyEr
_symmetry_space_group_name_H-M   'P 1'
_cell_length_a   8.63635575
_cell_length_b   8.63635575
_cell_length_c   10.27172322
_cell_angle_alpha   114.85950825
_cell_angle_beta   114.85950825
_cell_angle_gamma   90.00000000
_symmetry_Int_Tables_number   1
_chemical_formula_structural   Pm5Nd2DyEr
_chemical_formula_sum   'Pm10 Nd4 Dy2 Er2'
_cell_volume   616.02866004
_cell_formula_units_Z   2
loop_
 _symmetry_equiv_pos_site_id
 _symmetry_equiv_pos_as_xyz
  1  'x, y, z'
loop_
 _atom_site_type_symbol
 _atom_site_label
 _atom_site_symmetry_multiplicity
 _atom_site_fract_x
 _atom_site_fract_y
 _atom_site_fract_z
 _atom_site_occupancy
  Pm  Pm0  1  0.92640067  0.42640067  0.28534326  1
  Pm  Pm1  1  0.64105741  0.14105741  0.71465674  1
  Pm  Pm2  1  0.07359933  0.57359933  0.71465674  1
  Pm  Pm3  1  0.14105741  0.07359933  0.71465674  1
  Pm  Pm4  1  0.57359933  0.64105741  0.71465674  1
  Pm  Pm5  1  0.85894259  0.92640067  0.28534326  1
  Pm  Pm6  1  0.42640067  0.35894259  0.28534326  1
  Pm  Pm7  1  0.35894259  0.85894259  0.28534326  1
  Pm  Pm8  1  0.50000000  0.50000000  0.00000000  1
  Pm  Pm9  1  0.00000000  0.00000000  0.00000000  1
  Nd  Nd10  1  0.12080252  0.37919748  0.00000000  1
  Nd  Nd11  1  0.62080252  0.12080252  1.00000000  1
  Nd  Nd12  1  0.37919748  0.87919748  0.00000000  1
  Nd  Nd13  1  0.87919748  0.62080252  0.00000000  1
  Dy  Dy14  1  0.25000000  0.25000000  0.50000000  1
  Dy  Dy15  1  0.75000000  0.75000000  0.50000000  1
  Er  Er16  1  0.25000000  0.75000000  0.50000000  1
  Er  Er17  1  0.75000000  0.25000000  0.50000000  1
