# generated using pymatgen
data_BeTe2Au
_symmetry_space_group_name_H-M   'P 1'
_cell_length_a   8.38448051
_cell_length_b   8.38448052
_cell_length_c   8.38448052
_cell_angle_alpha   26.02643970
_cell_angle_beta   26.02643968
_cell_angle_gamma   26.02643968
_symmetry_Int_Tables_number   1
_chemical_formula_structural   BeTe2Au
_chemical_formula_sum   'Be1 Te2 Au1'
_cell_volume   99.96837158
_cell_formula_units_Z   1
loop_
 _symmetry_equiv_pos_site_id
 _symmetry_equiv_pos_as_xyz
  1  'x, y, z'
loop_
 _atom_site_type_symbol
 _atom_site_label
 _atom_site_symmetry_multiplicity
 _atom_site_fract_x
 _atom_site_fract_y
 _atom_site_fract_z
 _atom_site_occupancy
  Be  Be0  1  0.50000000  0.50000000  0.50000000  1
  Te  Te1  1  0.89275141  0.89275141  0.89275141  1
  Te  Te2  1  0.10724859  0.10724859  0.10724859  1
  Au  Au3  1  0.00000000  0.00000000  0.00000000  1
