# generated using pymatgen
data_PrCr2GaO8
_symmetry_space_group_name_H-M   'P 1'
_cell_length_a   5.49453625
_cell_length_b   5.49453624
_cell_length_c   6.60741014
_cell_angle_alpha   90.00000000
_cell_angle_beta   90.00000000
_cell_angle_gamma   119.99999998
_symmetry_Int_Tables_number   1
_chemical_formula_structural   PrCr2GaO8
_chemical_formula_sum   'Pr1 Cr2 Ga1 O8'
_cell_volume   172.75235748
_cell_formula_units_Z   1
loop_
 _symmetry_equiv_pos_site_id
 _symmetry_equiv_pos_as_xyz
  1  'x, y, z'
loop_
 _atom_site_type_symbol
 _atom_site_label
 _atom_site_symmetry_multiplicity
 _atom_site_fract_x
 _atom_site_fract_y
 _atom_site_fract_z
 _atom_site_occupancy
  Pr  Pr0  1  0.00000000  0.00000000  0.50000000  1
  Cr  Cr1  1  0.33333333  0.66666667  0.73418422  1
  Cr  Cr2  1  0.66666667  0.33333333  0.26581578  1
  Ga  Ga3  1  0.00000000  0.00000000  0.00000000  1
  O  O4  1  0.15669905  0.31339810  0.80342059  1
  O  O5  1  0.15669905  0.84329995  0.80342059  1
  O  O6  1  0.68660090  0.84329995  0.80342059  1
  O  O7  1  0.31339910  0.15670005  0.19657941  1
  O  O8  1  0.66666667  0.33333333  0.51928290  1
  O  O9  1  0.33333333  0.66666667  0.48071710  1
  O  O10  1  0.84330095  0.68660190  0.19657941  1
  O  O11  1  0.84330095  0.15670005  0.19657941  1
