# generated using pymatgen
data_Sc2TiPd4
_symmetry_space_group_name_H-M   'P 1'
_cell_length_a   4.50955456
_cell_length_b   4.50954866
_cell_length_c   7.28457041
_cell_angle_alpha   82.72179894
_cell_angle_beta   82.72198568
_cell_angle_gamma   62.29782770
_symmetry_Int_Tables_number   1
_chemical_formula_structural   Sc2TiPd4
_chemical_formula_sum   'Sc2 Ti1 Pd4'
_cell_volume   129.71415175
_cell_formula_units_Z   1
loop_
 _symmetry_equiv_pos_site_id
 _symmetry_equiv_pos_as_xyz
  1  'x, y, z'
loop_
 _atom_site_type_symbol
 _atom_site_label
 _atom_site_symmetry_multiplicity
 _atom_site_fract_x
 _atom_site_fract_y
 _atom_site_fract_z
 _atom_site_occupancy
  Sc  Sc0  1  0.71297099  0.71297099  0.70692262  1
  Sc  Sc1  1  0.28702901  0.28702901  0.29307738  1
  Ti  Ti2  1  0.00000000  0.00000000  0.00000000  1
  Pd  Pd3  1  0.92274736  0.92274638  0.35072942  1
  Pd  Pd4  1  0.07725264  0.07725362  0.64927058  1
  Pd  Pd5  1  0.65106060  0.65106060  0.09877040  1
  Pd  Pd6  1  0.34893940  0.34893940  0.90122960  1
