# generated using pymatgen
data_Ru2C
_symmetry_space_group_name_H-M   'P 1'
_cell_length_a   4.98308747
_cell_length_b   4.98308747
_cell_length_c   4.98308747
_cell_angle_alpha   60.00000000
_cell_angle_beta   60.00000000
_cell_angle_gamma   60.00000000
_symmetry_Int_Tables_number   1
_chemical_formula_structural   Ru2C
_chemical_formula_sum   'Ru4 C2'
_cell_volume   87.49445563
_cell_formula_units_Z   2
loop_
 _symmetry_equiv_pos_site_id
 _symmetry_equiv_pos_as_xyz
  1  'x, y, z'
loop_
 _atom_site_type_symbol
 _atom_site_label
 _atom_site_symmetry_multiplicity
 _atom_site_fract_x
 _atom_site_fract_y
 _atom_site_fract_z
 _atom_site_occupancy
  Ru  Ru0  1  0.62500000  0.12500000  0.12500000  1
  Ru  Ru1  1  0.12500000  0.62500000  0.12500000  1
  Ru  Ru2  1  0.12500000  0.12500000  0.62500000  1
  Ru  Ru3  1  0.12500000  0.12500000  0.12500000  1
  C  C4  1  0.50000000  0.50000000  0.50000000  1
  C  C5  1  0.75000000  0.75000000  0.75000000  1
