# generated using pymatgen
data_BeRe
_symmetry_space_group_name_H-M   'P 1'
_cell_length_a   4.24858887
_cell_length_b   4.43482674
_cell_length_c   5.17717512
_cell_angle_alpha   90.00000000
_cell_angle_beta   90.00000000
_cell_angle_gamma   90.00000000
_symmetry_Int_Tables_number   1
_chemical_formula_structural   BeRe
_chemical_formula_sum   'Be4 Re4'
_cell_volume   97.54706794
_cell_formula_units_Z   4
loop_
 _symmetry_equiv_pos_site_id
 _symmetry_equiv_pos_as_xyz
  1  'x, y, z'
loop_
 _atom_site_type_symbol
 _atom_site_label
 _atom_site_symmetry_multiplicity
 _atom_site_fract_x
 _atom_site_fract_y
 _atom_site_fract_z
 _atom_site_occupancy
  Be  Be0  1  0.25000000  0.91828304  0.87653582  1
  Be  Be1  1  0.75000000  0.58171696  0.37653582  1
  Be  Be2  1  0.25000000  0.41828304  0.62346418  1
  Be  Be3  1  0.75000000  0.08171696  0.12346418  1
  Re  Re4  1  0.25000000  0.93302800  0.37729801  1
  Re  Re5  1  0.75000000  0.56697200  0.87729801  1
  Re  Re6  1  0.25000000  0.43302800  0.12270199  1
  Re  Re7  1  0.75000000  0.06697200  0.62270199  1
