# generated using pymatgen
data_La3TiCl5O4
_symmetry_space_group_name_H-M   'P 1'
_cell_length_a   4.07839292
_cell_length_b   14.84532887
_cell_length_c   16.95422140
_cell_angle_alpha   90.00000000
_cell_angle_beta   90.00000000
_cell_angle_gamma   90.00000000
_symmetry_Int_Tables_number   1
_chemical_formula_structural   La3TiCl5O4
_chemical_formula_sum   'La12 Ti4 Cl20 O16'
_cell_volume   1026.49476150
_cell_formula_units_Z   4
loop_
 _symmetry_equiv_pos_site_id
 _symmetry_equiv_pos_as_xyz
  1  'x, y, z'
loop_
 _atom_site_type_symbol
 _atom_site_label
 _atom_site_symmetry_multiplicity
 _atom_site_fract_x
 _atom_site_fract_y
 _atom_site_fract_z
 _atom_site_occupancy
  La  La0  1  0.75000000  0.07656890  0.62120272  1
  La  La1  1  0.25000000  0.92343110  0.37879728  1
  La  La2  1  0.75000000  0.91363656  0.87953214  1
  La  La3  1  0.25000000  0.23719310  0.86983029  1
  La  La4  1  0.75000000  0.42343110  0.12120272  1
  La  La5  1  0.25000000  0.08636344  0.12046786  1
  La  La6  1  0.75000000  0.58636344  0.37953214  1
  La  La7  1  0.25000000  0.57656890  0.87879728  1
  La  La8  1  0.75000000  0.73719310  0.63016971  1
  La  La9  1  0.25000000  0.26280690  0.36983029  1
  La  La10  1  0.25000000  0.41363656  0.62046786  1
  La  La11  1  0.75000000  0.76280690  0.13016971  1
  Ti  Ti12  1  0.75000000  0.40763345  0.79115111  1
  Ti  Ti13  1  0.25000000  0.90763345  0.70884889  1
  Ti  Ti14  1  0.75000000  0.09236655  0.29115111  1
  Ti  Ti15  1  0.25000000  0.59236655  0.20884889  1
  Cl  Cl16  1  0.25000000  0.90132059  0.20210214  1
  Cl  Cl17  1  0.75000000  0.40132059  0.29789786  1
  Cl  Cl18  1  0.75000000  0.55467499  0.55501912  1
  Cl  Cl19  1  0.25000000  0.71264756  0.48044332  1
  Cl  Cl20  1  0.25000000  0.09729547  0.48459763  1
  Cl  Cl21  1  0.25000000  0.44532501  0.44498088  1
  Cl  Cl22  1  0.75000000  0.59729547  0.01540237  1
  Cl  Cl23  1  0.25000000  0.22221261  0.67787226  1
  Cl  Cl24  1  0.75000000  0.77778739  0.32212774  1
  Cl  Cl25  1  0.25000000  0.27778739  0.17787226  1
  Cl  Cl26  1  0.75000000  0.90270453  0.51540237  1
  Cl  Cl27  1  0.25000000  0.40270453  0.98459763  1
  Cl  Cl28  1  0.25000000  0.05467499  0.94498088  1
  Cl  Cl29  1  0.75000000  0.72221261  0.82212774  1
  Cl  Cl30  1  0.25000000  0.78735244  0.98044332  1
  Cl  Cl31  1  0.75000000  0.94532501  0.05501912  1
  Cl  Cl32  1  0.25000000  0.59867941  0.70210214  1
  Cl  Cl33  1  0.75000000  0.09867941  0.79789786  1
  Cl  Cl34  1  0.75000000  0.28735244  0.51955668  1
  Cl  Cl35  1  0.75000000  0.21264756  0.01955668  1
  O  O36  1  0.25000000  0.90758372  0.81818277  1
  O  O37  1  0.25000000  0.48545564  0.15245456  1
  O  O38  1  0.75000000  0.51454436  0.84754544  1
  O  O39  1  0.75000000  0.09241628  0.18181723  1
  O  O40  1  0.25000000  0.59241628  0.31818277  1
  O  O41  1  0.75000000  0.98545564  0.34754544  1
  O  O42  1  0.75000000  0.29889878  0.84506347  1
  O  O43  1  0.25000000  0.01454436  0.65245456  1
  O  O44  1  0.75000000  0.59464615  0.20866317  1
  O  O45  1  0.75000000  0.90535385  0.70866317  1
  O  O46  1  0.25000000  0.70110122  0.15493653  1
  O  O47  1  0.75000000  0.20110122  0.34506347  1
  O  O48  1  0.25000000  0.40535385  0.79133683  1
  O  O49  1  0.25000000  0.79889878  0.65493653  1
  O  O50  1  0.25000000  0.09464615  0.29133683  1
  O  O51  1  0.75000000  0.40758372  0.68181723  1
