# generated using pymatgen
data_RbNpCuF6
_symmetry_space_group_name_H-M   'P 1'
_cell_length_a   8.65987351
_cell_length_b   7.41913089
_cell_length_c   8.46521910
_cell_angle_alpha   115.98989182
_cell_angle_beta   120.76361607
_cell_angle_gamma   90.00000000
_symmetry_Int_Tables_number   1
_chemical_formula_structural   RbNpCuF6
_chemical_formula_sum   'Rb2 Np2 Cu2 F12'
_cell_volume   402.00770962
_cell_formula_units_Z   2
loop_
 _symmetry_equiv_pos_site_id
 _symmetry_equiv_pos_as_xyz
  1  'x, y, z'
loop_
 _atom_site_type_symbol
 _atom_site_label
 _atom_site_symmetry_multiplicity
 _atom_site_fract_x
 _atom_site_fract_y
 _atom_site_fract_z
 _atom_site_occupancy
  Rb  Rb0  1  0.75216507  0.50216507  0.50433014  1
  Rb  Rb1  1  0.24783493  0.49783493  0.49566986  1
  Np  Np2  1  0.50000000  0.00000000  0.50000000  1
  Np  Np3  1  -0.00000000  0.00000000  0.50000000  1
  Cu  Cu4  1  0.50000000  0.50000000  0.00000000  1
  Cu  Cu5  1  0.50000000  0.00000000  0.00000000  1
  F  F6  1  0.46648147  0.71648147  0.93296295  1
  F  F7  1  0.81273320  0.06273320  0.62546640  1
  F  F8  1  0.83250727  0.11502330  0.28976330  1
  F  F9  1  0.45725603  0.67474000  0.28976330  1
  F  F10  1  0.45725603  0.11502330  0.28976330  1
  F  F11  1  0.83250727  0.67474000  0.28976330  1
  F  F12  1  0.53351853  0.28351853  0.06703705  1
  F  F13  1  0.18726680  0.93726680  0.37453360  1
  F  F14  1  0.16749273  0.88497670  0.71023670  1
  F  F15  1  0.54274397  0.32526000  0.71023670  1
  F  F16  1  0.54274397  0.88497670  0.71023670  1
  F  F17  1  0.16749273  0.32526000  0.71023670  1
