# generated using pymatgen
data_NaGaC
_symmetry_space_group_name_H-M   'P 1'
_cell_length_a   3.21912475
_cell_length_b   6.03110043
_cell_length_c   6.23278065
_cell_angle_alpha   79.20317375
_cell_angle_beta   75.69410099
_cell_angle_gamma   99.29277831
_symmetry_Int_Tables_number   1
_chemical_formula_structural   NaGaC
_chemical_formula_sum   'Na2 Ga2 C2'
_cell_volume   112.40298036
_cell_formula_units_Z   2
loop_
 _symmetry_equiv_pos_site_id
 _symmetry_equiv_pos_as_xyz
  1  'x, y, z'
loop_
 _atom_site_type_symbol
 _atom_site_label
 _atom_site_symmetry_multiplicity
 _atom_site_fract_x
 _atom_site_fract_y
 _atom_site_fract_z
 _atom_site_occupancy
  Na  Na0  1  0.18128577  0.88502017  0.19403582  1
  Na  Na1  1  0.58772248  0.52288379  0.74085058  1
  C  C2  1  0.85237808  0.27626599  0.11095974  1
  C  C3  1  0.91178766  0.18694299  0.93739688  1
  Ga  Ga4  1  0.30287664  0.38066714  0.30699076  1
  Ga  Ga5  1  0.01407936  0.03594992  0.67568622  1
