# generated using pymatgen
data_V(GaAg)2
_symmetry_space_group_name_H-M   'P 1'
_cell_length_a   7.49582682
_cell_length_b   7.49582682
_cell_length_c   2.97051760
_cell_angle_alpha   90.00000000
_cell_angle_beta   90.00000000
_cell_angle_gamma   90.00000000
_symmetry_Int_Tables_number   1
_chemical_formula_structural   V(GaAg)2
_chemical_formula_sum   'V2 Ga4 Ag4'
_cell_volume   166.90571916
_cell_formula_units_Z   2
loop_
 _symmetry_equiv_pos_site_id
 _symmetry_equiv_pos_as_xyz
  1  'x, y, z'
loop_
 _atom_site_type_symbol
 _atom_site_label
 _atom_site_symmetry_multiplicity
 _atom_site_fract_x
 _atom_site_fract_y
 _atom_site_fract_z
 _atom_site_occupancy
  Ag  Ag0  1  0.14387831  0.64387831  0.50000000  1
  Ag  Ag1  1  0.64387831  0.85612169  0.50000000  1
  Ag  Ag2  1  0.85612169  0.35612169  0.50000000  1
  Ag  Ag3  1  0.35612169  0.14387831  0.50000000  1
  Ga  Ga4  1  0.34241225  0.84241225  0.00000000  1
  Ga  Ga5  1  0.84241225  0.65758775  0.00000000  1
  Ga  Ga6  1  0.65758775  0.15758775  0.00000000  1
  Ga  Ga7  1  0.15758775  0.34241225  0.00000000  1
  V  V8  1  0.00000000  0.00000000  0.00000000  1
  V  V9  1  0.50000000  0.50000000  0.00000000  1
