# generated using pymatgen
data_EuCdRh2
_symmetry_space_group_name_H-M   'P 1'
_cell_length_a   4.74779128
_cell_length_b   4.75030782
_cell_length_c   4.75030782
_cell_angle_alpha   59.99999998
_cell_angle_beta   59.98246473
_cell_angle_gamma   59.98246483
_symmetry_Int_Tables_number   1
_chemical_formula_structural   EuCdRh2
_chemical_formula_sum   'Eu1 Cd1 Rh2'
_cell_volume   75.73645411
_cell_formula_units_Z   1
loop_
 _symmetry_equiv_pos_site_id
 _symmetry_equiv_pos_as_xyz
  1  'x, y, z'
loop_
 _atom_site_type_symbol
 _atom_site_label
 _atom_site_symmetry_multiplicity
 _atom_site_fract_x
 _atom_site_fract_y
 _atom_site_fract_z
 _atom_site_occupancy
  Eu  Eu0  1  0.75012856  0.74995715  0.74995715  1
  Rh  Rh1  1  0.00021711  0.99992763  0.99992763  1
  Rh  Rh2  1  0.49978546  0.50007151  0.50007151  1
  Cd  Cd3  1  0.24987186  0.25004271  0.25004271  1
