# generated using pymatgen
data_ZnPdN2
_symmetry_space_group_name_H-M   'P 1'
_cell_length_a   6.01220281
_cell_length_b   6.01220281
_cell_length_c   6.01220281
_cell_angle_alpha   30.71674931
_cell_angle_beta   30.71674926
_cell_angle_gamma   30.71674926
_symmetry_Int_Tables_number   1
_chemical_formula_structural   ZnPdN2
_chemical_formula_sum   'Zn1 Pd1 N2'
_cell_volume   50.27896313
_cell_formula_units_Z   1
loop_
 _symmetry_equiv_pos_site_id
 _symmetry_equiv_pos_as_xyz
  1  'x, y, z'
loop_
 _atom_site_type_symbol
 _atom_site_label
 _atom_site_symmetry_multiplicity
 _atom_site_fract_x
 _atom_site_fract_y
 _atom_site_fract_z
 _atom_site_occupancy
  Zn  Zn0  1  0.00000000  0.00000000  0.00000000  1
  Pd  Pd1  1  0.50000000  0.50000000  0.50000000  1
  N  N2  1  0.89203287  0.89203287  0.89203287  1
  N  N3  1  0.10796713  0.10796713  0.10796713  1
