# generated using pymatgen
data_NdB2Rh3
_symmetry_space_group_name_H-M   'P 1'
_cell_length_a   3.57751702
_cell_length_b   9.01977828
_cell_length_c   9.01980090
_cell_angle_alpha   119.99991234
_cell_angle_beta   90.00000000
_cell_angle_gamma   90.00000000
_symmetry_Int_Tables_number   1
_chemical_formula_structural   NdB2Rh3
_chemical_formula_sum   'Nd3 B6 Rh9'
_cell_volume   252.06093159
_cell_formula_units_Z   3
loop_
 _symmetry_equiv_pos_site_id
 _symmetry_equiv_pos_as_xyz
  1  'x, y, z'
loop_
 _atom_site_type_symbol
 _atom_site_label
 _atom_site_symmetry_multiplicity
 _atom_site_fract_x
 _atom_site_fract_y
 _atom_site_fract_z
 _atom_site_occupancy
  Nd  Nd0  1  0.50000000  0.00000000  0.00000000  1
  Nd  Nd1  1  0.00000000  0.66666700  0.33333300  1
  Nd  Nd2  1  0.00000000  0.33333300  0.66666700  1
  B  B3  1  0.50000000  0.81310944  0.18689056  1
  B  B4  1  0.50000000  0.37378111  0.18689056  1
  B  B5  1  0.50000000  0.81310944  0.62621889  1
  B  B6  1  0.50000000  0.18689056  0.81310944  1
  B  B7  1  0.50000000  0.62621889  0.81310944  1
  B  B8  1  0.50000000  0.18689056  0.37378111  1
  Rh  Rh9  1  0.50000000  0.50000000  0.50000000  1
  Rh  Rh10  1  0.50000000  0.00000000  0.50000000  1
  Rh  Rh11  1  0.50000000  0.50000000  0.00000000  1
  Rh  Rh12  1  0.00000000  0.71643487  0.71643487  1
  Rh  Rh13  1  0.00000000  1.00000000  0.28356513  1
  Rh  Rh14  1  0.00000000  0.28356513  1.00000000  1
  Rh  Rh15  1  0.00000000  0.28356513  0.28356513  1
  Rh  Rh16  1  0.00000000  0.00000000  0.71643487  1
  Rh  Rh17  1  0.00000000  0.71643487  0.00000000  1
