# generated using pymatgen
data_Cs2Dy(CdS2)2
_symmetry_space_group_name_H-M   'P 1'
_cell_length_a   4.06804948
_cell_length_b   8.56541262
_cell_length_c   8.57772746
_cell_angle_alpha   112.19782348
_cell_angle_beta   103.71713137
_cell_angle_gamma   90.00000000
_symmetry_Int_Tables_number   1
_chemical_formula_structural   Cs2Dy(CdS2)2
_chemical_formula_sum   'Cs2 Dy1 Cd2 S4'
_cell_volume   267.50502502
_cell_formula_units_Z   1
loop_
 _symmetry_equiv_pos_site_id
 _symmetry_equiv_pos_as_xyz
  1  'x, y, z'
loop_
 _atom_site_type_symbol
 _atom_site_label
 _atom_site_symmetry_multiplicity
 _atom_site_fract_x
 _atom_site_fract_y
 _atom_site_fract_z
 _atom_site_occupancy
  Cs  Cs0  1  0.12684650  0.55768698  0.25369300  1
  Cs  Cs1  1  0.87315350  0.44231302  0.74630700  1
  Dy  Dy2  1  0.00000000  0.00000000  0.00000000  1
  Cd  Cd3  1  0.68451183  0.01986883  0.36902365  1
  Cd  Cd4  1  0.31548817  0.98013117  0.63097635  1
  S  S5  1  0.17825964  0.20652438  0.35652027  1
  S  S6  1  0.82174036  0.79347562  0.64347973  1
  S  S7  1  0.52569021  0.79908735  0.05138043  1
  S  S8  1  0.47430979  0.20091265  0.94861957  1
