# generated using pymatgen
data_Sr4Cd5Ge6
_symmetry_space_group_name_H-M   'P 1'
_cell_length_a   4.60581266
_cell_length_b   10.53388365
_cell_length_c   16.82201401
_cell_angle_alpha   90.00000000
_cell_angle_beta   90.00000000
_cell_angle_gamma   102.62792882
_symmetry_Int_Tables_number   1
_chemical_formula_structural   Sr4Cd5Ge6
_chemical_formula_sum   'Sr8 Cd10 Ge12'
_cell_volume   796.41270548
_cell_formula_units_Z   2
loop_
 _symmetry_equiv_pos_site_id
 _symmetry_equiv_pos_as_xyz
  1  'x, y, z'
loop_
 _atom_site_type_symbol
 _atom_site_label
 _atom_site_symmetry_multiplicity
 _atom_site_fract_x
 _atom_site_fract_y
 _atom_site_fract_z
 _atom_site_occupancy
  Sr  Sr0  1  0.96588849  0.93177797  0.26455557  1
  Sr  Sr1  1  0.03411151  0.06822203  0.76455557  1
  Sr  Sr2  1  0.16703959  0.33407919  0.30377498  1
  Sr  Sr3  1  0.83296041  0.66592081  0.80377498  1
  Sr  Sr4  1  0.82392255  0.64784409  0.44609076  1
  Sr  Sr5  1  0.17607745  0.35215591  0.94609076  1
  Sr  Sr6  1  0.01681816  0.03363531  0.50361305  1
  Sr  Sr7  1  0.98318184  0.96636469  0.00361305  1
  Cd  Cd8  1  0.43848061  0.87696021  0.67877871  1
  Cd  Cd9  1  0.56151939  0.12303979  0.17877871  1
  Cd  Cd10  1  0.15144609  0.30289218  0.62613035  1
  Cd  Cd11  1  0.84855391  0.69710782  0.12613035  1
  Cd  Cd12  1  0.64744856  0.29489812  0.48076325  1
  Cd  Cd13  1  0.35255144  0.70510188  0.98076325  1
  Cd  Cd14  1  0.29867471  0.59735041  0.62291169  1
  Cd  Cd15  1  0.70132529  0.40264959  0.12291169  1
  Cd  Cd16  1  0.34350449  0.68700999  0.27182511  1
  Cd  Cd17  1  0.65649551  0.31299001  0.77182511  1
  Ge  Ge18  1  0.77410926  0.54821852  0.26504497  1
  Ge  Ge19  1  0.43571034  0.87141968  0.39956916  1
  Ge  Ge20  1  0.78039718  0.56079537  0.98508615  1
  Ge  Ge21  1  0.21960282  0.43920463  0.48508615  1
  Ge  Ge22  1  0.44776179  0.89552357  0.85797727  1
  Ge  Ge23  1  0.55223821  0.10447643  0.35797727  1
  Ge  Ge24  1  0.42927381  0.85854662  0.13105693  1
  Ge  Ge25  1  0.57072619  0.14145338  0.63105693  1
  Ge  Ge26  1  0.11353457  0.22707014  0.11830204  1
  Ge  Ge27  1  0.88646543  0.77292986  0.61830204  1
  Ge  Ge28  1  0.56428966  0.12858032  0.89956916  1
  Ge  Ge29  1  0.22589074  0.45178148  0.76504497  1
