# generated using pymatgen
data_SiAsPC
_symmetry_space_group_name_H-M   'P 1'
_cell_length_a   4.70857907
_cell_length_b   3.47558167
_cell_length_c   8.27437477
_cell_angle_alpha   90.00000000
_cell_angle_beta   99.02326098
_cell_angle_gamma   90.00000000
_symmetry_Int_Tables_number   1
_chemical_formula_structural   SiAsPC
_chemical_formula_sum   'Si2 As2 P2 C2'
_cell_volume   133.73482632
_cell_formula_units_Z   2
loop_
 _symmetry_equiv_pos_site_id
 _symmetry_equiv_pos_as_xyz
  1  'x, y, z'
loop_
 _atom_site_type_symbol
 _atom_site_label
 _atom_site_symmetry_multiplicity
 _atom_site_fract_x
 _atom_site_fract_y
 _atom_site_fract_z
 _atom_site_occupancy
  C  C0  1  0.43122490  0.00000000  0.88408352  1
  C  C1  1  0.43122490  0.50000000  0.38408352  1
  P  P2  1  0.12879870  0.00000000  0.70282420  1
  P  P3  1  0.12879870  0.50000000  0.20282420  1
  As  As4  1  0.68313764  0.00000000  0.34718788  1
  As  As5  1  0.68313764  0.50000000  0.84718788  1
  Si  Si6  1  0.34155876  0.00000000  0.09429440  1
  Si  Si7  1  0.34155876  0.50000000  0.59429440  1
