# generated using pymatgen
data_Ce2Co3NiB12
_symmetry_space_group_name_H-M   'P 1'
_cell_length_a   8.04721703
_cell_length_b   8.04721704
_cell_length_c   8.04721703
_cell_angle_alpha   38.90875525
_cell_angle_beta   38.90875526
_cell_angle_gamma   38.90875528
_symmetry_Int_Tables_number   1
_chemical_formula_structural   Ce2Co3NiB12
_chemical_formula_sum   'Ce2 Co3 Ni1 B12'
_cell_volume   184.84492227
_cell_formula_units_Z   1
loop_
 _symmetry_equiv_pos_site_id
 _symmetry_equiv_pos_as_xyz
  1  'x, y, z'
loop_
 _atom_site_type_symbol
 _atom_site_label
 _atom_site_symmetry_multiplicity
 _atom_site_fract_x
 _atom_site_fract_y
 _atom_site_fract_z
 _atom_site_occupancy
  Ce  Ce0  1  0.64101396  0.64101396  0.64101396  1
  Ce  Ce1  1  0.35898604  0.35898604  0.35898604  1
  Co  Co2  1  0.50000000  0.00000000  0.00000000  1
  Co  Co3  1  -0.00000000  0.50000000  0.00000000  1
  Co  Co4  1  -0.00000000  0.00000000  0.50000000  1
  Ni  Ni5  1  0.00000000  0.00000000  0.00000000  1
  B  B6  1  0.34528738  0.34528738  0.02602685  1
  B  B7  1  0.95234453  0.95234453  0.31917157  1
  B  B8  1  0.31917157  0.95234453  0.95234453  1
  B  B9  1  0.02602685  0.34528738  0.34528738  1
  B  B10  1  0.95234453  0.31917157  0.95234453  1
  B  B11  1  0.34528738  0.02602685  0.34528738  1
  B  B12  1  0.65471262  0.65471262  0.97397315  1
  B  B13  1  0.04765547  0.04765547  0.68082843  1
  B  B14  1  0.68082843  0.04765547  0.04765547  1
  B  B15  1  0.97397315  0.65471262  0.65471262  1
  B  B16  1  0.04765547  0.68082843  0.04765547  1
  B  B17  1  0.65471262  0.97397315  0.65471262  1
