# generated using pymatgen
data_ScBeTc
_symmetry_space_group_name_H-M   'P 1'
_cell_length_a   3.94066179
_cell_length_b   3.94066178
_cell_length_c   3.42195392
_cell_angle_alpha   90.00000000
_cell_angle_beta   90.00000000
_cell_angle_gamma   119.99999999
_symmetry_Int_Tables_number   1
_chemical_formula_structural   ScBeTc
_chemical_formula_sum   'Sc1 Be1 Tc1'
_cell_volume   46.01962903
_cell_formula_units_Z   1
loop_
 _symmetry_equiv_pos_site_id
 _symmetry_equiv_pos_as_xyz
  1  'x, y, z'
loop_
 _atom_site_type_symbol
 _atom_site_label
 _atom_site_symmetry_multiplicity
 _atom_site_fract_x
 _atom_site_fract_y
 _atom_site_fract_z
 _atom_site_occupancy
  Sc  Sc0  1  0.33333333  0.66666667  0.33337718  1
  Be  Be1  1  0.00000000  0.00000000  0.83324753  1
  Tc  Tc2  1  0.66666667  0.33333333  0.83337528  1
