# generated using pymatgen
data_YGa4Fe
_symmetry_space_group_name_H-M   'P 1'
_cell_length_a   3.99093015
_cell_length_b   6.76920874
_cell_length_c   7.61113206
_cell_angle_alpha   90.00000000
_cell_angle_beta   90.00000000
_cell_angle_gamma   90.00000000
_symmetry_Int_Tables_number   1
_chemical_formula_structural   YGa4Fe
_chemical_formula_sum   'Y2 Ga8 Fe2'
_cell_volume   205.61807581
_cell_formula_units_Z   2
loop_
 _symmetry_equiv_pos_site_id
 _symmetry_equiv_pos_as_xyz
  1  'x, y, z'
loop_
 _atom_site_type_symbol
 _atom_site_label
 _atom_site_symmetry_multiplicity
 _atom_site_fract_x
 _atom_site_fract_y
 _atom_site_fract_z
 _atom_site_occupancy
  Y  Y0  1  0.00000000  0.62448672  0.75000000  1
  Y  Y1  1  0.00000000  0.37551328  0.25000000  1
  Ga  Ga2  1  0.00000000  0.00000000  0.50000000  1
  Ga  Ga3  1  0.00000000  0.00000000  0.00000000  1
  Ga  Ga4  1  0.50000000  0.95504215  0.75000000  1
  Ga  Ga5  1  0.50000000  0.04495785  0.25000000  1
  Ga  Ga6  1  0.50000000  0.68239757  0.06933592  1
  Ga  Ga7  1  0.50000000  0.31760243  0.93066408  1
  Ga  Ga8  1  0.50000000  0.68239757  0.43066408  1
  Ga  Ga9  1  0.50000000  0.31760243  0.56933592  1
  Fe  Fe10  1  0.00000000  0.19309606  0.75000000  1
  Fe  Fe11  1  0.00000000  0.80690394  0.25000000  1
