# generated using pymatgen
data_TlIr
_symmetry_space_group_name_H-M   'P 1'
_cell_length_a   7.52789305
_cell_length_b   7.52789305
_cell_length_c   7.52789305
_cell_angle_alpha   90.00000000
_cell_angle_beta   90.00000000
_cell_angle_gamma   90.00000000
_symmetry_Int_Tables_number   1
_chemical_formula_structural   TlIr
_chemical_formula_sum   'Tl6 Ir6'
_cell_volume   426.59947939
_cell_formula_units_Z   6
loop_
 _symmetry_equiv_pos_site_id
 _symmetry_equiv_pos_as_xyz
  1  'x, y, z'
loop_
 _atom_site_type_symbol
 _atom_site_label
 _atom_site_symmetry_multiplicity
 _atom_site_fract_x
 _atom_site_fract_y
 _atom_site_fract_z
 _atom_site_occupancy
  Tl  Tl0  1  0.25000000  0.00000000  0.50000000  1
  Tl  Tl1  1  0.75000000  0.00000000  0.50000000  1
  Tl  Tl2  1  0.00000000  0.50000000  0.25000000  1
  Tl  Tl3  1  0.00000000  0.50000000  0.75000000  1
  Tl  Tl4  1  0.50000000  0.25000000  0.00000000  1
  Tl  Tl5  1  0.50000000  0.75000000  0.00000000  1
  Ir  Ir6  1  0.25000000  0.50000000  0.00000000  1
  Ir  Ir7  1  0.75000000  0.50000000  0.00000000  1
  Ir  Ir8  1  0.50000000  0.00000000  0.25000000  1
  Ir  Ir9  1  0.50000000  0.00000000  0.75000000  1
  Ir  Ir10  1  0.00000000  0.25000000  0.50000000  1
  Ir  Ir11  1  0.00000000  0.75000000  0.50000000  1
