# generated using pymatgen
data_MgSn6
_symmetry_space_group_name_H-M   'P 1'
_cell_length_a   8.29002446
_cell_length_b   8.29002523
_cell_length_c   15.00000000
_cell_angle_alpha   90.00000000
_cell_angle_beta   90.00000000
_cell_angle_gamma   120.00000005
_symmetry_Int_Tables_number   1
_chemical_formula_structural   MgSn6
_chemical_formula_sum   'Mg1 Sn6'
_cell_volume   892.75759765
_cell_formula_units_Z   1
loop_
 _symmetry_equiv_pos_site_id
 _symmetry_equiv_pos_as_xyz
  1  'x, y, z'
loop_
 _atom_site_type_symbol
 _atom_site_label
 _atom_site_symmetry_multiplicity
 _atom_site_fract_x
 _atom_site_fract_y
 _atom_site_fract_z
 _atom_site_occupancy
  Mg  Mg0  1  0.99999999  0.00000000  0.50000000  1
  Sn  Sn1  1  0.58087393  0.79043697  0.50000000  1
  Sn  Sn2  1  0.20956304  0.79043696  0.50000000  1
  Sn  Sn3  1  0.20956304  0.41912608  0.50000000  1
  Sn  Sn4  1  0.79043697  0.58087393  0.50000000  1
  Sn  Sn5  1  0.79043696  0.20956304  0.50000000  1
  Sn  Sn6  1  0.41912609  0.20956305  0.50000000  1
