# generated using pymatgen
data_Pu2Ni4Ge3As
_symmetry_space_group_name_H-M   'P 1'
_cell_length_a   4.17607801
_cell_length_b   4.17607801
_cell_length_c   9.40657844
_cell_angle_alpha   90.00000000
_cell_angle_beta   90.00000000
_cell_angle_gamma   90.00000000
_symmetry_Int_Tables_number   1
_chemical_formula_structural   Pu2Ni4Ge3As
_chemical_formula_sum   'Pu2 Ni4 Ge3 As1'
_cell_volume   164.04722447
_cell_formula_units_Z   1
loop_
 _symmetry_equiv_pos_site_id
 _symmetry_equiv_pos_as_xyz
  1  'x, y, z'
loop_
 _atom_site_type_symbol
 _atom_site_label
 _atom_site_symmetry_multiplicity
 _atom_site_fract_x
 _atom_site_fract_y
 _atom_site_fract_z
 _atom_site_occupancy
  Pu  Pu0  1  0.50000000  0.00000000  0.24896120  1
  Pu  Pu1  1  0.00000000  0.50000000  0.75103880  1
  Ni  Ni2  1  0.50000000  0.50000000  0.00000000  1
  Ni  Ni3  1  0.00000000  0.00000000  0.00000000  1
  Ni  Ni4  1  0.50000000  0.00000000  0.62127271  1
  Ni  Ni5  1  0.00000000  0.50000000  0.37872729  1
  Ge  Ge6  1  0.00000000  0.00000000  0.50000000  1
  Ge  Ge7  1  0.50000000  0.00000000  0.87132711  1
  Ge  Ge8  1  0.00000000  0.50000000  0.12867289  1
  As  As9  1  0.50000000  0.50000000  0.50000000  1
