# generated using pymatgen
data_NpFeCuO6
_symmetry_space_group_name_H-M   'P 1'
_cell_length_a   5.27224312
_cell_length_b   5.27224312
_cell_length_c   8.87071499
_cell_angle_alpha   90.00000000
_cell_angle_beta   90.00000000
_cell_angle_gamma   119.99999998
_symmetry_Int_Tables_number   1
_chemical_formula_structural   NpFeCuO6
_chemical_formula_sum   'Np2 Fe2 Cu2 O12'
_cell_volume   213.54043122
_cell_formula_units_Z   2
loop_
 _symmetry_equiv_pos_site_id
 _symmetry_equiv_pos_as_xyz
  1  'x, y, z'
loop_
 _atom_site_type_symbol
 _atom_site_label
 _atom_site_symmetry_multiplicity
 _atom_site_fract_x
 _atom_site_fract_y
 _atom_site_fract_z
 _atom_site_occupancy
  Np  Np0  1  0.33333333  0.66666667  0.25000000  1
  Np  Np1  1  0.66666667  0.33333333  0.75000000  1
  Fe  Fe2  1  0.66666667  0.33333333  0.25000000  1
  Fe  Fe3  1  0.33333333  0.66666667  0.75000000  1
  Cu  Cu4  1  0.00000000  0.00000000  0.00000000  1
  Cu  Cu5  1  0.00000000  0.00000000  0.50000000  1
  O  O6  1  0.65824863  0.65798956  0.13115655  1
  O  O7  1  0.99974093  0.34175037  0.13115655  1
  O  O8  1  0.34175137  0.99974193  0.63115655  1
  O  O9  1  0.00025907  0.65824963  0.86884345  1
  O  O10  1  0.34200944  0.34175037  0.36884345  1
  O  O11  1  0.99974093  0.65798956  0.36884345  1
  O  O12  1  0.65799056  0.99974193  0.86884345  1
  O  O13  1  0.65824863  0.00025807  0.36884345  1
  O  O14  1  0.00025907  0.34201044  0.63115655  1
  O  O15  1  0.34200944  0.00025807  0.13115655  1
  O  O16  1  0.65799056  0.65824963  0.63115655  1
  O  O17  1  0.34175137  0.34201044  0.86884345  1
