# generated using pymatgen
data_KIn(CuAs)2
_symmetry_space_group_name_H-M   'P 1'
_cell_length_a   4.14776930
_cell_length_b   4.14776930
_cell_length_c   8.60435569
_cell_angle_alpha   90.00000000
_cell_angle_beta   90.00000000
_cell_angle_gamma   59.99999998
_symmetry_Int_Tables_number   1
_chemical_formula_structural   KIn(CuAs)2
_chemical_formula_sum   'K1 In1 Cu2 As2'
_cell_volume   128.19709149
_cell_formula_units_Z   1
loop_
 _symmetry_equiv_pos_site_id
 _symmetry_equiv_pos_as_xyz
  1  'x, y, z'
loop_
 _atom_site_type_symbol
 _atom_site_label
 _atom_site_symmetry_multiplicity
 _atom_site_fract_x
 _atom_site_fract_y
 _atom_site_fract_z
 _atom_site_occupancy
  As  As0  1  0.66666667  0.66666667  0.22717503  1
  As  As1  1  0.33333333  0.33333333  0.77282497  1
  K  K2  1  0.00000000  0.00000000  0.50000000  1
  Cu  Cu3  1  0.66666667  0.66666667  0.81767025  1
  Cu  Cu4  1  0.33333333  0.33333333  0.18232975  1
  In  In5  1  0.00000000  0.00000000  0.00000000  1
