# generated using pymatgen
data_La6TbSm8
_symmetry_space_group_name_H-M   'P 1'
_cell_length_a   9.30048019
_cell_length_b   9.30048019
_cell_length_c   8.89144990
_cell_angle_alpha   58.46620919
_cell_angle_beta   58.46620920
_cell_angle_gamma   60.00000000
_symmetry_Int_Tables_number   1
_chemical_formula_structural   La6TbSm8
_chemical_formula_sum   'La6 Tb1 Sm8'
_cell_volume   530.88558526
_cell_formula_units_Z   1
loop_
 _symmetry_equiv_pos_site_id
 _symmetry_equiv_pos_as_xyz
  1  'x, y, z'
loop_
 _atom_site_type_symbol
 _atom_site_label
 _atom_site_symmetry_multiplicity
 _atom_site_fract_x
 _atom_site_fract_y
 _atom_site_fract_z
 _atom_site_occupancy
  La  La0  1  0.46393728  0.90435891  0.86790401  1
  La  La1  1  0.09564109  0.23620020  0.13209599  1
  La  La2  1  0.23620020  0.53606272  0.13209599  1
  La  La3  1  0.76379980  0.46393728  0.86790401  1
  La  La4  1  0.90435891  0.76379980  0.86790401  1
  La  La5  1  0.53606272  0.09564109  0.13209599  1
  Tb  Tb6  1  0.00000000  0.00000000  0.00000000  1
  Sm  Sm7  1  0.24232791  0.28969816  0.58172938  1
  Sm  Sm8  1  0.71030184  0.11375546  0.41827062  1
  Sm  Sm9  1  0.11375546  0.75767209  0.41827062  1
  Sm  Sm10  1  0.57709571  0.57709571  0.26871287  1
  Sm  Sm11  1  0.42290429  0.42290429  0.73128713  1
  Sm  Sm12  1  0.88624454  0.24232791  0.58172938  1
  Sm  Sm13  1  0.28969816  0.88624454  0.58172938  1
  Sm  Sm14  1  0.75767209  0.71030184  0.41827062  1
