# generated using pymatgen
data_SiAsW2
_symmetry_space_group_name_H-M   'P 1'
_cell_length_a   8.34483734
_cell_length_b   8.34483734
_cell_length_c   8.34483734
_cell_angle_alpha   20.32478817
_cell_angle_beta   20.32478822
_cell_angle_gamma   20.32478818
_symmetry_Int_Tables_number   1
_chemical_formula_structural   SiAsW2
_chemical_formula_sum   'Si1 As1 W2'
_cell_volume   61.35167846
_cell_formula_units_Z   1
loop_
 _symmetry_equiv_pos_site_id
 _symmetry_equiv_pos_as_xyz
  1  'x, y, z'
loop_
 _atom_site_type_symbol
 _atom_site_label
 _atom_site_symmetry_multiplicity
 _atom_site_fract_x
 _atom_site_fract_y
 _atom_site_fract_z
 _atom_site_occupancy
  As  As0  1  0.25000000  0.25000000  0.25000000  1
  Si  Si1  1  0.75000000  0.75000000  0.75000000  1
  W  W2  1  0.00009128  0.00009128  0.00009128  1
  W  W3  1  0.49990872  0.49990872  0.49990872  1
