# generated using pymatgen
data_TbF3
_symmetry_space_group_name_H-M   'P 1'
_cell_length_a   16.54019514
_cell_length_b   16.54019514
_cell_length_c   6.46722160
_cell_angle_alpha   90.00000000
_cell_angle_beta   90.00000000
_cell_angle_gamma   120.00000001
_symmetry_Int_Tables_number   1
_chemical_formula_structural   TbF3
_chemical_formula_sum   'Tb2 F6'
_cell_volume   1532.25000675
_cell_formula_units_Z   2
loop_
 _symmetry_equiv_pos_site_id
 _symmetry_equiv_pos_as_xyz
  1  'x, y, z'
loop_
 _atom_site_type_symbol
 _atom_site_label
 _atom_site_symmetry_multiplicity
 _atom_site_fract_x
 _atom_site_fract_y
 _atom_site_fract_z
 _atom_site_occupancy
  F  F0  1  0.44623131  0.55374448  0.55426288  1
  F  F1  1  0.44623434  0.39250425  0.55417065  1
  F  F2  1  0.60751899  0.55374673  0.55423333  1
  F  F3  1  0.55375039  0.44623940  0.05426400  1
  F  F4  1  0.55374775  0.60752377  0.05417354  1
  F  F5  1  0.39249847  0.44621795  0.05423693  1
  Tb  Tb6  1  0.50000359  0.49998354  0.80425207  1
  Tb  Tb7  1  0.50001516  0.50003988  0.30427058  1
