# generated using pymatgen
data_LaHo3In2
_symmetry_space_group_name_H-M   'P 1'
_cell_length_a   5.23835268
_cell_length_b   6.74096904
_cell_length_c   9.97401227
_cell_angle_alpha   90.00000000
_cell_angle_beta   90.00000000
_cell_angle_gamma   90.00000000
_symmetry_Int_Tables_number   1
_chemical_formula_structural   LaHo3In2
_chemical_formula_sum   'La2 Ho6 In4'
_cell_volume   352.19806473
_cell_formula_units_Z   2
loop_
 _symmetry_equiv_pos_site_id
 _symmetry_equiv_pos_as_xyz
  1  'x, y, z'
loop_
 _atom_site_type_symbol
 _atom_site_label
 _atom_site_symmetry_multiplicity
 _atom_site_fract_x
 _atom_site_fract_y
 _atom_site_fract_z
 _atom_site_occupancy
  La  La0  1  0.50000000  0.54447895  0.53889430  1
  La  La1  1  0.50000000  0.04447895  0.46110570  1
  Ho  Ho2  1  0.00000000  0.46216909  0.95814963  1
  Ho  Ho3  1  0.00000000  0.96216909  0.04185037  1
  Ho  Ho4  1  0.50000000  0.67970836  0.17729767  1
  Ho  Ho5  1  0.50000000  0.17970836  0.82270233  1
  Ho  Ho6  1  0.00000000  0.31873003  0.30869866  1
  Ho  Ho7  1  0.00000000  0.81873003  0.69130134  1
  In  In8  1  0.50000000  0.70990663  0.86319979  1
  In  In9  1  0.50000000  0.20990663  0.13680021  1
  In  In10  1  0.00000000  0.28500693  0.64706937  1
  In  In11  1  0.00000000  0.78500693  0.35293063  1
