# generated using pymatgen
data_Ho3Ni2Sn3
_symmetry_space_group_name_H-M   'P 1'
_cell_length_a   4.43235852
_cell_length_b   5.80447332
_cell_length_c   14.86793296
_cell_angle_alpha   90.00000000
_cell_angle_beta   90.00000000
_cell_angle_gamma   112.44555255
_symmetry_Int_Tables_number   1
_chemical_formula_structural   Ho3Ni2Sn3
_chemical_formula_sum   'Ho6 Ni4 Sn6'
_cell_volume   353.53658245
_cell_formula_units_Z   2
loop_
 _symmetry_equiv_pos_site_id
 _symmetry_equiv_pos_as_xyz
  1  'x, y, z'
loop_
 _atom_site_type_symbol
 _atom_site_label
 _atom_site_symmetry_multiplicity
 _atom_site_fract_x
 _atom_site_fract_y
 _atom_site_fract_z
 _atom_site_occupancy
  Ho  Ho0  1  0.92269411  0.84538923  0.38920775  1
  Ho  Ho1  1  0.07730589  0.15461077  0.88920775  1
  Ho  Ho2  1  0.92269411  0.84538923  0.11079225  1
  Ho  Ho3  1  0.07730589  0.15461077  0.61079225  1
  Ho  Ho4  1  0.64418771  0.28837442  0.25000000  1
  Ho  Ho5  1  0.35581229  0.71162558  0.75000000  1
  Ni  Ni6  1  0.79574541  0.59149182  0.89320166  1
  Ni  Ni7  1  0.20425459  0.40850818  0.39320166  1
  Ni  Ni8  1  0.79574541  0.59149182  0.60679834  1
  Ni  Ni9  1  0.20425459  0.40850818  0.10679834  1
  Sn  Sn10  1  0.63289933  0.26579865  0.46311171  1
  Sn  Sn11  1  0.36710067  0.73420135  0.96311171  1
  Sn  Sn12  1  0.63289933  0.26579865  0.03688829  1
  Sn  Sn13  1  0.36710067  0.73420135  0.53688829  1
  Sn  Sn14  1  0.34846597  0.69693193  0.25000000  1
  Sn  Sn15  1  0.65153403  0.30306807  0.75000000  1
