# generated using pymatgen
data_BaZnSi2
_symmetry_space_group_name_H-M   'P 1'
_cell_length_a   5.49289687
_cell_length_b   5.49289828
_cell_length_c   5.49289729
_cell_angle_alpha   134.60900947
_cell_angle_beta   104.49860689
_cell_angle_gamma   92.71567090
_symmetry_Int_Tables_number   1
_chemical_formula_structural   BaZnSi2
_chemical_formula_sum   'Ba1 Zn1 Si2'
_cell_volume   108.07412927
_cell_formula_units_Z   1
loop_
 _symmetry_equiv_pos_site_id
 _symmetry_equiv_pos_as_xyz
  1  'x, y, z'
loop_
 _atom_site_type_symbol
 _atom_site_label
 _atom_site_symmetry_multiplicity
 _atom_site_fract_x
 _atom_site_fract_y
 _atom_site_fract_z
 _atom_site_occupancy
  Ba  Ba0  1  0.25000000  0.75000000  0.50000000  1
  Si  Si1  1  0.91006377  0.91006377  1.00000000  1
  Si  Si2  1  0.58993623  0.58993623  0.00000000  1
  Zn  Zn3  1  0.75000000  0.25000000  0.50000000  1
