# generated using pymatgen
data_Mn5(SbO4)3
_symmetry_space_group_name_H-M   'P 1'
_cell_length_a   10.95486572
_cell_length_b   10.95486572
_cell_length_c   10.95486571
_cell_angle_alpha   109.47122060
_cell_angle_beta   109.47122066
_cell_angle_gamma   109.47122065
_symmetry_Int_Tables_number   1
_chemical_formula_structural   Mn5(SbO4)3
_chemical_formula_sum   'Mn20 Sb12 O48'
_cell_volume   1012.04374401
_cell_formula_units_Z   4
loop_
 _symmetry_equiv_pos_site_id
 _symmetry_equiv_pos_as_xyz
  1  'x, y, z'
loop_
 _atom_site_type_symbol
 _atom_site_label
 _atom_site_symmetry_multiplicity
 _atom_site_fract_x
 _atom_site_fract_y
 _atom_site_fract_z
 _atom_site_occupancy
  Sb  Sb0  1  0.75000000  0.37500000  0.12500000  1
  Sb  Sb1  1  0.87500000  0.75000000  0.12500000  1
  Sb  Sb2  1  0.37500000  0.75000000  0.62500000  1
  Sb  Sb3  1  0.25000000  0.12500000  0.37500000  1
  Sb  Sb4  1  0.87500000  0.12500000  0.25000000  1
  Sb  Sb5  1  0.37500000  0.62500000  0.25000000  1
  Sb  Sb6  1  0.62500000  0.37500000  0.75000000  1
  Sb  Sb7  1  0.12500000  0.87500000  0.75000000  1
  Sb  Sb8  1  0.75000000  0.87500000  0.62500000  1
  Sb  Sb9  1  0.62500000  0.25000000  0.37500000  1
  Sb  Sb10  1  0.12500000  0.25000000  0.87500000  1
  Sb  Sb11  1  0.25000000  0.62500000  0.87500000  1
  Mn  Mn12  1  0.12500000  0.37500000  0.25000000  1
  Mn  Mn13  1  0.00000000  0.50000000  0.00000000  1
  Mn  Mn14  1  0.00000000  0.00000000  0.00000000  1
  Mn  Mn15  1  0.37500000  0.25000000  0.12500000  1
  Mn  Mn16  1  0.50000000  0.00000000  0.50000000  1
  Mn  Mn17  1  0.50000000  0.50000000  0.00000000  1
  Mn  Mn18  1  0.12500000  0.75000000  0.37500000  1
  Mn  Mn19  1  0.75000000  0.12500000  0.87500000  1
  Mn  Mn20  1  0.75000000  0.62500000  0.37500000  1
  Mn  Mn21  1  0.37500000  0.12500000  0.75000000  1
  Mn  Mn22  1  0.62500000  0.87500000  0.25000000  1
  Mn  Mn23  1  0.50000000  0.50000000  0.50000000  1
  Mn  Mn24  1  0.50000000  0.00000000  0.00000000  1
  Mn  Mn25  1  0.00000000  0.00000000  0.50000000  1
  Mn  Mn26  1  0.25000000  0.37500000  0.62500000  1
  Mn  Mn27  1  0.25000000  0.87500000  0.12500000  1
  Mn  Mn28  1  0.00000000  0.50000000  0.50000000  1
  Mn  Mn29  1  0.87500000  0.25000000  0.62500000  1
  Mn  Mn30  1  0.62500000  0.75000000  0.87500000  1
  Mn  Mn31  1  0.87500000  0.62500000  0.75000000  1
  O  O32  1  0.70505533  0.12717635  0.03438756  1
  O  O33  1  0.32933223  0.53438756  0.40721121  1
  O  O34  1  0.96561244  0.37282365  0.29494467  1
  O  O35  1  0.53438756  0.20505533  0.12717635  1
  O  O36  1  0.57787898  0.70505533  0.67066777  1
  O  O37  1  0.96561244  0.59278879  0.17066777  1
  O  O38  1  0.32933223  0.79494467  0.42212102  1
  O  O39  1  0.09278879  0.92212102  0.12717635  1
  O  O40  1  0.59278879  0.96561244  0.67066777  1
  O  O41  1  0.70505533  0.57787898  0.17066777  1
  O  O42  1  0.79494467  0.46561244  0.37282365  1
  O  O43  1  0.82933223  0.90721121  0.03438756  1
  O  O44  1  0.12717635  0.70505533  0.53438756  1
  O  O45  1  0.37282365  0.40721121  0.07787898  1
  O  O46  1  0.07787898  0.90721121  0.37282365  1
  O  O47  1  0.42212102  0.12717635  0.59278879  1
  O  O48  1  0.07787898  0.17066777  0.20505533  1
  O  O49  1  0.46561244  0.67066777  0.09278879  1
  O  O50  1  0.82933223  0.92212102  0.29494467  1
  O  O51  1  0.12717635  0.42212102  0.09278879  1
  O  O52  1  0.37282365  0.96561244  0.79494467  1
  O  O53  1  0.59278879  0.62717635  0.42212102  1
  O  O54  1  0.90721121  0.82933223  0.53438756  1
  O  O55  1  0.79494467  0.32933223  0.92212102  1
  O  O56  1  0.40721121  0.37282365  0.57787898  1
  O  O57  1  0.09278879  0.17066777  0.46561244  1
  O  O58  1  0.20505533  0.67066777  0.07787898  1
  O  O59  1  0.17066777  0.07787898  0.70505533  1
  O  O60  1  0.62717635  0.03438756  0.20505533  1
  O  O61  1  0.87282365  0.57787898  0.90721121  1
  O  O62  1  0.53438756  0.32933223  0.90721121  1
  O  O63  1  0.57787898  0.87282365  0.40721121  1
  O  O64  1  0.92212102  0.82933223  0.79494467  1
  O  O65  1  0.92212102  0.09278879  0.62717635  1
  O  O66  1  0.87282365  0.29494467  0.46561244  1
  O  O67  1  0.17066777  0.09278879  0.96561244  1
  O  O68  1  0.62717635  0.59278879  0.92212102  1
  O  O69  1  0.40721121  0.03438756  0.32933223  1
  O  O70  1  0.29494467  0.42212102  0.82933223  1
  O  O71  1  0.20505533  0.53438756  0.62717635  1
  O  O72  1  0.90721121  0.07787898  0.87282365  1
  O  O73  1  0.67066777  0.20505533  0.57787898  1
  O  O74  1  0.46561244  0.79494467  0.87282365  1
  O  O75  1  0.03438756  0.40721121  0.82933223  1
  O  O76  1  0.42212102  0.29494467  0.32933223  1
  O  O77  1  0.03438756  0.62717635  0.70505533  1
  O  O78  1  0.67066777  0.46561244  0.59278879  1
  O  O79  1  0.29494467  0.87282365  0.96561244  1
