# generated using pymatgen
data_Nd5HgGe2
_symmetry_space_group_name_H-M   'P 1'
_cell_length_a   7.05834989
_cell_length_b   7.05836146
_cell_length_c   6.63533452
_cell_angle_alpha   122.10242958
_cell_angle_beta   122.10384907
_cell_angle_gamma   90.13426276
_symmetry_Int_Tables_number   1
_chemical_formula_structural   Nd5HgGe2
_chemical_formula_sum   'Nd5 Hg1 Ge2'
_cell_volume   217.72901846
_cell_formula_units_Z   1
loop_
 _symmetry_equiv_pos_site_id
 _symmetry_equiv_pos_as_xyz
  1  'x, y, z'
loop_
 _atom_site_type_symbol
 _atom_site_label
 _atom_site_symmetry_multiplicity
 _atom_site_fract_x
 _atom_site_fract_y
 _atom_site_fract_z
 _atom_site_occupancy
  Nd  Nd0  1  0.72203050  0.22224566  0.94427049  1
  Nd  Nd1  1  0.22224006  0.22223975  0.94425999  1
  Nd  Nd2  1  0.72202496  0.72202510  0.94427577  1
  Nd  Nd3  1  0.22224545  0.72202979  0.94426996  1
  Nd  Nd4  1  0.72237645  0.72237681  0.44476909  1
  Hg  Hg5  1  0.22185593  0.22185543  0.44370448  1
  Ge  Ge6  1  0.22212036  0.72211154  0.44422810  1
  Ge  Ge7  1  0.72211129  0.22211991  0.44422812  1
