# generated using pymatgen
data_Li2MnP2O7
_symmetry_space_group_name_H-M   'P 1'
_cell_length_a   9.96333087
_cell_length_b   10.00017333
_cell_length_c   11.33188691
_cell_angle_alpha   77.55231947
_cell_angle_beta   90.00000000
_cell_angle_gamma   90.00000000
_symmetry_Int_Tables_number   1
_chemical_formula_structural   Li2MnP2O7
_chemical_formula_sum   'Li16 Mn8 P16 O56'
_cell_volume   1102.51258106
_cell_formula_units_Z   8
loop_
 _symmetry_equiv_pos_site_id
 _symmetry_equiv_pos_as_xyz
  1  'x, y, z'
loop_
 _atom_site_type_symbol
 _atom_site_label
 _atom_site_symmetry_multiplicity
 _atom_site_fract_x
 _atom_site_fract_y
 _atom_site_fract_z
 _atom_site_occupancy
  Li  Li0  1  0.60792531  0.58402944  0.97079009  1
  Li  Li1  1  0.21805435  0.60937832  0.55187957  1
  Li  Li2  1  0.89207469  0.08402944  0.97079009  1
  Li  Li3  1  0.78194565  0.39062168  0.44812043  1
  Li  Li4  1  0.71805435  0.89062168  0.44812043  1
  Li  Li5  1  0.58575502  0.17911944  0.44523103  1
  Li  Li6  1  0.28194565  0.10937832  0.55187957  1
  Li  Li7  1  0.41424498  0.82088056  0.55476897  1
  Li  Li8  1  0.39207469  0.41597056  0.02920991  1
  Li  Li9  1  0.40717306  0.84717072  0.04483509  1
  Li  Li10  1  0.59282694  0.15282928  0.95516491  1
  Li  Li11  1  0.10792531  0.91597056  0.02920991  1
  Li  Li12  1  0.08575502  0.32088056  0.55476897  1
  Li  Li13  1  0.91424498  0.67911944  0.44523103  1
  Li  Li14  1  0.90717306  0.65282928  0.95516491  1
  Li  Li15  1  0.09282694  0.34717072  0.04483509  1
  Mn  Mn16  1  0.08059520  0.20283005  0.32578531  1
  Mn  Mn17  1  0.71345525  0.75522482  0.17651913  1
  Mn  Mn18  1  0.58059520  0.29716995  0.67421469  1
  Mn  Mn19  1  0.78654475  0.25522482  0.17651913  1
  Mn  Mn20  1  0.28654475  0.24477518  0.82348087  1
  Mn  Mn21  1  0.41940480  0.70283005  0.32578531  1
  Mn  Mn22  1  0.91940480  0.79716995  0.67421469  1
  Mn  Mn23  1  0.21345525  0.74477518  0.82348087  1
  P  P24  1  0.45219961  0.97223758  0.76365017  1
  P  P25  1  0.70260951  0.87913072  0.89073843  1
  P  P26  1  0.85272721  0.12427109  0.57114903  1
  P  P27  1  0.95219961  0.52776242  0.23634983  1
  P  P28  1  0.79739049  0.37913072  0.89073843  1
  P  P29  1  0.56746575  0.44216078  0.24436459  1
  P  P30  1  0.35272721  0.37572891  0.42885097  1
  P  P31  1  0.20260951  0.62086928  0.10926157  1
  P  P32  1  0.29739049  0.12086928  0.10926157  1
  P  P33  1  0.93253425  0.94216078  0.24436459  1
  P  P34  1  0.43253425  0.55783922  0.75563541  1
  P  P35  1  0.04780039  0.47223758  0.76365017  1
  P  P36  1  0.06746575  0.05783922  0.75563541  1
  P  P37  1  0.14727279  0.87572891  0.42885097  1
  P  P38  1  0.64727279  0.62427109  0.57114903  1
  P  P39  1  0.54780039  0.02776242  0.23634983  1
  O  O40  1  0.91024006  0.52788866  0.36529869  1
  O  O41  1  0.17138104  0.16200822  0.68678882  1
  O  O42  1  0.91256385  0.08637219  0.26938777  1
  O  O43  1  0.77627126  0.51623305  0.92373414  1
  O  O44  1  0.46552865  0.11921200  0.78843204  1
  O  O45  1  0.65889046  0.47933400  0.54992250  1
  O  O46  1  0.82646945  0.81501710  0.84541824  1
  O  O47  1  0.15889046  0.02066600  0.45007750  1
  O  O48  1  0.82861896  0.83799178  0.31321118  1
  O  O49  1  0.60030284  0.90379326  0.77568817  1
  O  O50  1  0.96552865  0.38078800  0.21156796  1
  O  O51  1  0.72372874  0.01623305  0.92373414  1
  O  O52  1  0.05874039  0.77462894  0.51731213  1
  O  O53  1  0.08743615  0.91362781  0.73061223  1
  O  O54  1  0.22372874  0.48376695  0.07626586  1
  O  O55  1  0.17353055  0.18498290  0.15458176  1
  O  O56  1  0.42054793  0.38839021  0.29614664  1
  O  O57  1  0.39969716  0.09620674  0.22431183  1
  O  O58  1  0.44125961  0.27462894  0.51731213  1
  O  O59  1  0.67353055  0.31501710  0.84541824  1
  O  O60  1  0.53447135  0.88078800  0.21156796  1
  O  O61  1  0.67138104  0.33799178  0.31321118  1
  O  O62  1  0.10030284  0.59620674  0.22431183  1
  O  O63  1  0.08975994  0.47211134  0.63470131  1
  O  O64  1  0.71478668  0.19093629  0.57768731  1
  O  O65  1  0.41256385  0.41362781  0.73061223  1
  O  O66  1  0.57945207  0.61160979  0.70385336  1
  O  O67  1  0.21478668  0.30906371  0.42231269  1
  O  O68  1  0.41024006  0.97211134  0.63470131  1
  O  O69  1  0.32861896  0.66200822  0.68678882  1
  O  O70  1  0.55874039  0.72537106  0.48268787  1
  O  O71  1  0.86432308  0.61729691  0.13888363  1
  O  O72  1  0.13286705  0.72412848  0.00431176  1
  O  O73  1  0.94125961  0.22537106  0.48268787  1
  O  O74  1  0.78521332  0.69093629  0.57768731  1
  O  O75  1  0.84110954  0.97933400  0.54992250  1
  O  O76  1  0.63286705  0.77587152  0.99568824  1
  O  O77  1  0.56384743  0.43753619  0.11179952  1
  O  O78  1  0.36432308  0.88270309  0.86111637  1
  O  O79  1  0.58743615  0.58637219  0.26938777  1
  O  O80  1  0.27627126  0.98376695  0.07626586  1
  O  O81  1  0.03447135  0.61921200  0.78843204  1
  O  O82  1  0.06384743  0.06246381  0.88820048  1
  O  O83  1  0.28521332  0.80906371  0.42231269  1
  O  O84  1  0.63567692  0.11729691  0.13888363  1
  O  O85  1  0.86713295  0.27587152  0.99568824  1
  O  O86  1  0.89969716  0.40379326  0.77568817  1
  O  O87  1  0.34110954  0.52066600  0.45007750  1
  O  O88  1  0.58975994  0.02788866  0.36529869  1
  O  O89  1  0.43615257  0.56246381  0.88820048  1
  O  O90  1  0.93615257  0.93753619  0.11179952  1
  O  O91  1  0.32646945  0.68498290  0.15458176  1
  O  O92  1  0.07945207  0.88839021  0.29614664  1
  O  O93  1  0.92054793  0.11160979  0.70385336  1
  O  O94  1  0.13567692  0.38270309  0.86111637  1
  O  O95  1  0.36713295  0.22412848  0.00431176  1
