# generated using pymatgen
data_Mn(AsO2)2
_symmetry_space_group_name_H-M   'P 1'
_cell_length_a   5.90451807
_cell_length_b   8.74438168
_cell_length_c   8.74449945
_cell_angle_alpha   89.99999535
_cell_angle_beta   89.99996717
_cell_angle_gamma   89.99994096
_symmetry_Int_Tables_number   1
_chemical_formula_structural   Mn(AsO2)2
_chemical_formula_sum   'Mn4 As8 O16'
_cell_volume   451.49039598
_cell_formula_units_Z   4
loop_
 _symmetry_equiv_pos_site_id
 _symmetry_equiv_pos_as_xyz
  1  'x, y, z'
loop_
 _atom_site_type_symbol
 _atom_site_label
 _atom_site_symmetry_multiplicity
 _atom_site_fract_x
 _atom_site_fract_y
 _atom_site_fract_z
 _atom_site_occupancy
  Mn  Mn0  1  0.75001448  0.00003300  0.50001800  1
  Mn  Mn1  1  0.74994677  0.49995100  0.99999800  1
  Mn  Mn2  1  0.24999752  0.99998400  0.49997300  1
  Mn  Mn3  1  0.25000723  0.50000500  0.99997800  1
  As  As4  1  0.49999400  0.17603936  0.80832185  1
  As  As5  1  0.00001200  0.19167610  0.17603546  1
  As  As6  1  0.00001300  0.30831968  0.67603320  1
  As  As7  1  0.49999400  0.32395786  0.30832615  1
  As  As8  1  0.49999900  0.67603314  0.69167685  1
  As  As9  1  0.00000600  0.69168332  0.32395480  1
  As  As10  1  0.00000500  0.80831690  0.82395654  1
  As  As11  1  0.49999900  0.82396364  0.19167415  1
  O  O12  1  0.00002600  0.11099793  0.63758083  1
  O  O13  1  0.49997600  0.13758298  0.61099738  1
  O  O14  1  0.49997400  0.36242192  0.11099486  1
  O  O15  1  0.00001700  0.38900115  0.13758174  1
  O  O16  1  0.99999900  0.61100085  0.86241526  1
  O  O17  1  0.49999300  0.63757008  0.88901114  1
  O  O18  1  0.50000300  0.86242602  0.38900362  1
  O  O19  1  0.00000800  0.88900407  0.36242317  1
  O  O20  1  0.24999857  0.18624744  0.31374837  1
  O  O21  1  0.75000343  0.18625844  0.31373537  1
  O  O22  1  0.25000136  0.31374885  0.81374978  1
  O  O23  1  0.74999664  0.31374485  0.81373578  1
  O  O24  1  0.25000436  0.68625715  0.18623822  1
  O  O25  1  0.75000064  0.68626415  0.18625322  1
  O  O26  1  0.25000457  0.81374556  0.68624263  1
  O  O27  1  0.75000543  0.81374056  0.68625163  1
