# generated using pymatgen
data_PuO2
_symmetry_space_group_name_H-M   'P 1'
_cell_length_a   2.99009988
_cell_length_b   2.99009988
_cell_length_c   10.95599565
_cell_angle_alpha   97.84302550
_cell_angle_beta   97.84302550
_cell_angle_gamma   90.00000000
_symmetry_Int_Tables_number   1
_chemical_formula_structural   PuO2
_chemical_formula_sum   'Pu2 O4'
_cell_volume   96.11290842
_cell_formula_units_Z   2
loop_
 _symmetry_equiv_pos_site_id
 _symmetry_equiv_pos_as_xyz
  1  'x, y, z'
loop_
 _atom_site_type_symbol
 _atom_site_label
 _atom_site_symmetry_multiplicity
 _atom_site_fract_x
 _atom_site_fract_y
 _atom_site_fract_z
 _atom_site_occupancy
  Pu  Pu0  1  0.75000000  0.25000000  0.50000000  1
  Pu  Pu1  1  0.00000000  0.00000000  0.00000000  1
  O  O2  1  0.19667722  0.69667722  0.39335444  1
  O  O3  1  0.55332278  0.55332278  0.10664556  1
  O  O4  1  0.30332278  0.80332278  0.60664556  1
  O  O5  1  0.44667722  0.44667722  0.89335444  1
