# generated using pymatgen
data_Mg6FeW
_symmetry_space_group_name_H-M   'P 1'
_cell_length_a   6.09745109
_cell_length_b   6.09745109
_cell_length_c   4.81427593
_cell_angle_alpha   90.00000000
_cell_angle_beta   90.00000000
_cell_angle_gamma   123.57595049
_symmetry_Int_Tables_number   1
_chemical_formula_structural   Mg6FeW
_chemical_formula_sum   'Mg6 Fe1 W1'
_cell_volume   149.12574473
_cell_formula_units_Z   1
loop_
 _symmetry_equiv_pos_site_id
 _symmetry_equiv_pos_as_xyz
  1  'x, y, z'
loop_
 _atom_site_type_symbol
 _atom_site_label
 _atom_site_symmetry_multiplicity
 _atom_site_fract_x
 _atom_site_fract_y
 _atom_site_fract_z
 _atom_site_occupancy
  Mg  Mg0  1  0.82544854  0.67466237  0.50000000  1
  Mg  Mg1  1  0.32533763  0.17455146  0.50000000  1
  Mg  Mg2  1  0.66038084  0.83060491  0.00000000  1
  Mg  Mg3  1  0.16939509  0.33961916  0.00000000  1
  Mg  Mg4  1  0.68693075  0.31306925  0.00000000  1
  Mg  Mg5  1  0.17836690  0.82163310  0.00000000  1
  Fe  Fe6  1  0.83042008  0.16957992  0.50000000  1
  W  W7  1  0.32372416  0.67627584  0.50000000  1
