# generated using pymatgen
data_Ta2CdMo
_symmetry_space_group_name_H-M   'P 1'
_cell_length_a   5.54740935
_cell_length_b   5.55488875
_cell_length_c   2.76136419
_cell_angle_alpha   80.20438603
_cell_angle_beta   80.96437550
_cell_angle_gamma   117.40593955
_symmetry_Int_Tables_number   1
_chemical_formula_structural   Ta2CdMo
_chemical_formula_sum   'Ta2 Cd1 Mo1'
_cell_volume   71.69605696
_cell_formula_units_Z   1
loop_
 _symmetry_equiv_pos_site_id
 _symmetry_equiv_pos_as_xyz
  1  'x, y, z'
loop_
 _atom_site_type_symbol
 _atom_site_label
 _atom_site_symmetry_multiplicity
 _atom_site_fract_x
 _atom_site_fract_y
 _atom_site_fract_z
 _atom_site_occupancy
  Cd  Cd0  1  0.00000000  0.50000000  0.50000000  1
  Mo  Mo1  1  0.50000000  0.50000000  0.00000000  1
  Ta  Ta2  1  0.00000000  0.00000000  0.00000000  1
  Ta  Ta3  1  0.50000000  0.00000000  0.50000000  1
