# generated using pymatgen
data_PmHoAsS
_symmetry_space_group_name_H-M   'P 1'
_cell_length_a   3.99545045
_cell_length_b   3.99601413
_cell_length_c   7.40792148
_cell_angle_alpha   90.00923147
_cell_angle_beta   105.63023551
_cell_angle_gamma   119.99903786
_symmetry_Int_Tables_number   1
_chemical_formula_structural   PmHoAsS
_chemical_formula_sum   'Pm1 Ho1 As1 S1'
_cell_volume   97.34310660
_cell_formula_units_Z   1
loop_
 _symmetry_equiv_pos_site_id
 _symmetry_equiv_pos_as_xyz
  1  'x, y, z'
loop_
 _atom_site_type_symbol
 _atom_site_label
 _atom_site_symmetry_multiplicity
 _atom_site_fract_x
 _atom_site_fract_y
 _atom_site_fract_z
 _atom_site_occupancy
  Pm  Pm0  1  0.96269735  0.37943815  0.35708124  1
  Ho  Ho1  1  0.30901387  0.55235216  0.87674445  1
  As  As2  1  0.12714075  0.96153772  0.10386295  1
  S  S3  1  0.47904805  0.13747197  0.63197137  1
