# generated using pymatgen
data_TbH4Pt
_symmetry_space_group_name_H-M   'P 1'
_cell_length_a   4.09482487
_cell_length_b   4.44515845
_cell_length_c   4.44517528
_cell_angle_alpha   61.34879404
_cell_angle_beta   62.66780952
_cell_angle_gamma   62.66796376
_symmetry_Int_Tables_number   1
_chemical_formula_structural   TbH4Pt
_chemical_formula_sum   'Tb1 H4 Pt1'
_cell_volume   60.04023760
_cell_formula_units_Z   1
loop_
 _symmetry_equiv_pos_site_id
 _symmetry_equiv_pos_as_xyz
  1  'x, y, z'
loop_
 _atom_site_type_symbol
 _atom_site_label
 _atom_site_symmetry_multiplicity
 _atom_site_fract_x
 _atom_site_fract_y
 _atom_site_fract_z
 _atom_site_occupancy
  Tb  Tb0  1  0.00185058  0.50272036  0.49870636  1
  H  H1  1  0.67869251  0.09707281  0.55208312  1
  H  H2  1  0.32505330  0.90834788  0.44531465  1
  H  H3  1  0.32502930  0.44932965  0.90433388  1
  H  H4  1  0.67868651  0.55609412  0.09307080  1
  Pt  Pt5  1  0.50185979  0.00271219  0.99869919  1
