# generated using pymatgen
data_TmO2
_symmetry_space_group_name_H-M   'P 1'
_cell_length_a   3.01504607
_cell_length_b   3.01541197
_cell_length_c   17.05617512
_cell_angle_alpha   90.00000000
_cell_angle_beta   90.00000000
_cell_angle_gamma   90.00000000
_symmetry_Int_Tables_number   1
_chemical_formula_structural   TmO2
_chemical_formula_sum   'Tm1 O2'
_cell_volume   155.06802422
_cell_formula_units_Z   1
loop_
 _symmetry_equiv_pos_site_id
 _symmetry_equiv_pos_as_xyz
  1  'x, y, z'
loop_
 _atom_site_type_symbol
 _atom_site_label
 _atom_site_symmetry_multiplicity
 _atom_site_fract_x
 _atom_site_fract_y
 _atom_site_fract_z
 _atom_site_occupancy
  Tm  Tm0  1  0.07968171  0.00000000  0.49999998  1
  O  O1  1  0.57918160  0.50000000  0.56027657  1
  O  O2  1  0.58018177  0.50000000  0.43972345  1
