# generated using pymatgen
data_Sm2Pa2Ge2C
_symmetry_space_group_name_H-M   'P 1'
_cell_length_a   4.61904746
_cell_length_b   4.61904746
_cell_length_c   8.55209449
_cell_angle_alpha   105.66745517
_cell_angle_beta   105.66745524
_cell_angle_gamma   90.00000000
_symmetry_Int_Tables_number   1
_chemical_formula_structural   Sm2Pa2Ge2C
_chemical_formula_sum   'Sm2 Pa2 Ge2 C1'
_cell_volume   168.63293981
_cell_formula_units_Z   1
loop_
 _symmetry_equiv_pos_site_id
 _symmetry_equiv_pos_as_xyz
  1  'x, y, z'
loop_
 _atom_site_type_symbol
 _atom_site_label
 _atom_site_symmetry_multiplicity
 _atom_site_fract_x
 _atom_site_fract_y
 _atom_site_fract_z
 _atom_site_occupancy
  Sm  Sm0  1  0.17277467  0.17277467  0.34554934  1
  Sm  Sm1  1  0.82722533  0.82722533  0.65445066  1
  Pa  Pa2  1  0.00000000  0.50000000  0.00000000  1
  Pa  Pa3  1  0.50000000  0.00000000  0.00000000  1
  Ge  Ge4  1  0.36648206  0.36648306  0.73296513  1
  Ge  Ge5  1  0.63351794  0.63351694  0.26703487  1
  C  C6  1  0.00000000  0.00000000  0.00000000  1
