# generated using pymatgen
data_Ca2NiGe2
_symmetry_space_group_name_H-M   'P 1'
_cell_length_a   4.30578754
_cell_length_b   5.78840416
_cell_length_c   9.38015114
_cell_angle_alpha   82.96088353
_cell_angle_beta   76.78231041
_cell_angle_gamma   68.06889304
_symmetry_Int_Tables_number   1
_chemical_formula_structural   Ca2NiGe2
_chemical_formula_sum   'Ca4 Ni2 Ge4'
_cell_volume   210.94522173
_cell_formula_units_Z   2
loop_
 _symmetry_equiv_pos_site_id
 _symmetry_equiv_pos_as_xyz
  1  'x, y, z'
loop_
 _atom_site_type_symbol
 _atom_site_label
 _atom_site_symmetry_multiplicity
 _atom_site_fract_x
 _atom_site_fract_y
 _atom_site_fract_z
 _atom_site_occupancy
  Ni  Ni0  1  0.72260771  0.91124200  0.64280312  1
  Ni  Ni1  1  0.27739298  0.08875697  0.35719885  1
  Ge  Ge2  1  0.33963255  0.75978332  0.56110630  1
  Ge  Ge3  1  0.49179072  0.13902249  0.87731316  1
  Ge  Ge4  1  0.66036902  0.24021532  0.43889454  1
  Ge  Ge5  1  0.50820965  0.86097813  0.12268569  1
  Ca  Ca6  1  0.99816748  0.67338047  0.33116183  1
  Ca  Ca7  1  0.18785357  0.73318234  0.89182054  1
  Ca  Ca8  1  0.00183132  0.32662134  0.66883890  1
  Ca  Ca9  1  0.81214701  0.26681862  0.10817807  1
