# generated using pymatgen
data_ZnFeO2
_symmetry_space_group_name_H-M   'P 1'
_cell_length_a   3.49312180
_cell_length_b   5.71779404
_cell_length_c   5.71651889
_cell_angle_alpha   75.44805015
_cell_angle_beta   106.60430692
_cell_angle_gamma   73.39154226
_symmetry_Int_Tables_number   1
_chemical_formula_structural   ZnFeO2
_chemical_formula_sum   'Zn2 Fe2 O4'
_cell_volume   97.71650048
_cell_formula_units_Z   2
loop_
 _symmetry_equiv_pos_site_id
 _symmetry_equiv_pos_as_xyz
  1  'x, y, z'
loop_
 _atom_site_type_symbol
 _atom_site_label
 _atom_site_symmetry_multiplicity
 _atom_site_fract_x
 _atom_site_fract_y
 _atom_site_fract_z
 _atom_site_occupancy
  Zn  Zn0  1  0.78237611  0.41233181  0.92149223  1
  Zn  Zn1  1  0.78236004  0.91231721  0.42148966  1
  Fe  Fe2  1  0.43834813  0.48993847  0.34385095  1
  Fe  Fe3  1  0.43834608  0.98996042  0.84381947  1
  O  O4  1  0.44419960  0.24294156  0.09076718  1
  O  O5  1  0.44419658  0.74294787  0.59076441  1
  O  O6  1  0.78964570  0.16611074  0.66757206  1
  O  O7  1  0.78960153  0.66614459  0.16753734  1
