# generated using pymatgen
data_LiZn2Mo
_symmetry_space_group_name_H-M   'P 1'
_cell_length_a   9.58910901
_cell_length_b   9.58910901
_cell_length_c   9.58910901
_cell_angle_alpha   16.34424597
_cell_angle_beta   16.34424597
_cell_angle_gamma   16.34424600
_symmetry_Int_Tables_number   1
_chemical_formula_structural   LiZn2Mo
_chemical_formula_sum   'Li1 Zn2 Mo1'
_cell_volume   60.87969260
_cell_formula_units_Z   1
loop_
 _symmetry_equiv_pos_site_id
 _symmetry_equiv_pos_as_xyz
  1  'x, y, z'
loop_
 _atom_site_type_symbol
 _atom_site_label
 _atom_site_symmetry_multiplicity
 _atom_site_fract_x
 _atom_site_fract_y
 _atom_site_fract_z
 _atom_site_occupancy
  Li  Li0  1  0.50120247  0.50120247  0.50120247  1
  Mo  Mo1  1  0.74837457  0.74837457  0.74837457  1
  Zn  Zn2  1  0.00089033  0.00089033  0.00089033  1
  Zn  Zn3  1  0.24953262  0.24953262  0.24953262  1
