# generated using pymatgen
data_MoWS2
_symmetry_space_group_name_H-M   'P 1'
_cell_length_a   8.33656104
_cell_length_b   8.33656104
_cell_length_c   8.33656104
_cell_angle_alpha   20.91457559
_cell_angle_beta   20.91457563
_cell_angle_gamma   20.91457563
_symmetry_Int_Tables_number   1
_chemical_formula_structural   MoWS2
_chemical_formula_sum   'Mo1 W1 S2'
_cell_volume   64.64914114
_cell_formula_units_Z   1
loop_
 _symmetry_equiv_pos_site_id
 _symmetry_equiv_pos_as_xyz
  1  'x, y, z'
loop_
 _atom_site_type_symbol
 _atom_site_label
 _atom_site_symmetry_multiplicity
 _atom_site_fract_x
 _atom_site_fract_y
 _atom_site_fract_z
 _atom_site_occupancy
  Mo  Mo0  1  0.00000000  0.00000000  0.00000000  1
  S  S1  1  0.90277830  0.90277830  0.90277830  1
  S  S2  1  0.09722170  0.09722170  0.09722170  1
  W  W3  1  0.50000000  0.50000000  0.50000000  1
