# generated using pymatgen
data_Li5(Nd4Mg)3
_symmetry_space_group_name_H-M   'P 1'
_cell_length_a   15.53807073
_cell_length_b   15.53807073
_cell_length_c   15.53807073
_cell_angle_alpha   109.47122065
_cell_angle_beta   109.47122064
_cell_angle_gamma   109.47122064
_symmetry_Int_Tables_number   1
_chemical_formula_structural   Li5(Nd4Mg)3
_chemical_formula_sum   'Li20 Nd48 Mg12'
_cell_volume   2887.81515439
_cell_formula_units_Z   4
loop_
 _symmetry_equiv_pos_site_id
 _symmetry_equiv_pos_as_xyz
  1  'x, y, z'
loop_
 _atom_site_type_symbol
 _atom_site_label
 _atom_site_symmetry_multiplicity
 _atom_site_fract_x
 _atom_site_fract_y
 _atom_site_fract_z
 _atom_site_occupancy
  Mg  Mg0  1  0.75000000  0.37500000  0.12500000  1
  Mg  Mg1  1  0.87500000  0.75000000  0.12500000  1
  Mg  Mg2  1  0.37500000  0.75000000  0.62500000  1
  Mg  Mg3  1  0.25000000  0.12500000  0.37500000  1
  Mg  Mg4  1  0.87500000  0.12500000  0.25000000  1
  Mg  Mg5  1  0.37500000  0.62500000  0.25000000  1
  Mg  Mg6  1  0.62500000  0.37500000  0.75000000  1
  Mg  Mg7  1  0.12500000  0.87500000  0.75000000  1
  Mg  Mg8  1  0.75000000  0.87500000  0.62500000  1
  Mg  Mg9  1  0.62500000  0.25000000  0.37500000  1
  Mg  Mg10  1  0.12500000  0.25000000  0.87500000  1
  Mg  Mg11  1  0.25000000  0.62500000  0.87500000  1
  Li  Li12  1  0.12500000  0.37500000  0.25000000  1
  Li  Li13  1  0.00000000  0.50000000  0.00000000  1
  Li  Li14  1  0.00000000  0.00000000  0.00000000  1
  Li  Li15  1  0.37500000  0.25000000  0.12500000  1
  Li  Li16  1  0.50000000  0.00000000  0.50000000  1
  Li  Li17  1  0.50000000  0.50000000  0.00000000  1
  Li  Li18  1  0.12500000  0.75000000  0.37500000  1
  Li  Li19  1  0.75000000  0.12500000  0.87500000  1
  Li  Li20  1  0.75000000  0.62500000  0.37500000  1
  Li  Li21  1  0.37500000  0.12500000  0.75000000  1
  Li  Li22  1  0.62500000  0.87500000  0.25000000  1
  Li  Li23  1  0.50000000  0.50000000  0.50000000  1
  Li  Li24  1  0.50000000  0.00000000  0.00000000  1
  Li  Li25  1  0.00000000  0.00000000  0.50000000  1
  Li  Li26  1  0.25000000  0.37500000  0.62500000  1
  Li  Li27  1  0.25000000  0.87500000  0.12500000  1
  Li  Li28  1  0.00000000  0.50000000  0.50000000  1
  Li  Li29  1  0.87500000  0.25000000  0.62500000  1
  Li  Li30  1  0.62500000  0.75000000  0.87500000  1
  Li  Li31  1  0.87500000  0.62500000  0.75000000  1
  Nd  Nd32  1  0.71924576  0.13330096  0.05728962  1
  Nd  Nd33  1  0.33804386  0.55728962  0.42398866  1
  Nd  Nd34  1  0.94271038  0.36669904  0.28075424  1
  Nd  Nd35  1  0.55728962  0.21924576  0.13330096  1
  Nd  Nd36  1  0.58594480  0.71924576  0.66195614  1
  Nd  Nd37  1  0.94271038  0.57601134  0.16195614  1
  Nd  Nd38  1  0.33804386  0.78075424  0.41405520  1
  Nd  Nd39  1  0.07601134  0.91405520  0.13330096  1
  Nd  Nd40  1  0.57601134  0.94271038  0.66195614  1
  Nd  Nd41  1  0.71924576  0.58594480  0.16195614  1
  Nd  Nd42  1  0.78075424  0.44271038  0.36669904  1
  Nd  Nd43  1  0.83804386  0.92398866  0.05728962  1
  Nd  Nd44  1  0.13330096  0.71924576  0.55728962  1
  Nd  Nd45  1  0.36669904  0.42398866  0.08594480  1
  Nd  Nd46  1  0.08594480  0.92398866  0.36669904  1
  Nd  Nd47  1  0.41405520  0.13330096  0.57601134  1
  Nd  Nd48  1  0.08594480  0.16195614  0.21924576  1
  Nd  Nd49  1  0.44271038  0.66195614  0.07601134  1
  Nd  Nd50  1  0.83804386  0.91405520  0.28075424  1
  Nd  Nd51  1  0.13330096  0.41405520  0.07601134  1
  Nd  Nd52  1  0.36669904  0.94271038  0.78075424  1
  Nd  Nd53  1  0.57601134  0.63330096  0.41405520  1
  Nd  Nd54  1  0.92398866  0.83804386  0.55728962  1
  Nd  Nd55  1  0.78075424  0.33804386  0.91405520  1
  Nd  Nd56  1  0.42398866  0.36669904  0.58594480  1
  Nd  Nd57  1  0.07601134  0.16195614  0.44271038  1
  Nd  Nd58  1  0.21924576  0.66195614  0.08594480  1
  Nd  Nd59  1  0.16195614  0.08594480  0.71924576  1
  Nd  Nd60  1  0.63330096  0.05728962  0.21924576  1
  Nd  Nd61  1  0.86669904  0.58594480  0.92398866  1
  Nd  Nd62  1  0.55728962  0.33804386  0.92398866  1
  Nd  Nd63  1  0.58594480  0.86669904  0.42398866  1
  Nd  Nd64  1  0.91405520  0.83804386  0.78075424  1
  Nd  Nd65  1  0.91405520  0.07601134  0.63330096  1
  Nd  Nd66  1  0.86669904  0.28075424  0.44271038  1
  Nd  Nd67  1  0.16195614  0.07601134  0.94271038  1
  Nd  Nd68  1  0.63330096  0.57601134  0.91405520  1
  Nd  Nd69  1  0.42398866  0.05728962  0.33804386  1
  Nd  Nd70  1  0.28075424  0.41405520  0.83804386  1
  Nd  Nd71  1  0.21924576  0.55728962  0.63330096  1
  Nd  Nd72  1  0.92398866  0.08594480  0.86669904  1
  Nd  Nd73  1  0.66195614  0.21924576  0.58594480  1
  Nd  Nd74  1  0.44271038  0.78075424  0.86669904  1
  Nd  Nd75  1  0.05728962  0.42398866  0.83804386  1
  Nd  Nd76  1  0.41405520  0.28075424  0.33804386  1
  Nd  Nd77  1  0.05728962  0.63330096  0.71924576  1
  Nd  Nd78  1  0.66195614  0.44271038  0.57601134  1
  Nd  Nd79  1  0.28075424  0.86669904  0.94271038  1
