# generated using pymatgen
data_Cs2TlTeI6
_symmetry_space_group_name_H-M   'P 1'
_cell_length_a   8.96742328
_cell_length_b   8.96742328
_cell_length_c   8.91447538
_cell_angle_alpha   59.80332628
_cell_angle_beta   59.80332628
_cell_angle_gamma   90.00000000
_symmetry_Int_Tables_number   1
_chemical_formula_structural   Cs2TlTeI6
_chemical_formula_sum   'Cs2 Tl1 Te1 I6'
_cell_volume   503.86411063
_cell_formula_units_Z   1
loop_
 _symmetry_equiv_pos_site_id
 _symmetry_equiv_pos_as_xyz
  1  'x, y, z'
loop_
 _atom_site_type_symbol
 _atom_site_label
 _atom_site_symmetry_multiplicity
 _atom_site_fract_x
 _atom_site_fract_y
 _atom_site_fract_z
 _atom_site_occupancy
  Cs  Cs0  1  0.75000000  0.25000000  0.50000000  1
  Cs  Cs1  1  0.25000000  0.75000000  0.50000000  1
  I  I2  1  0.26440359  0.26440359  0.47119283  1
  I  I3  1  0.73559641  0.73559641  0.52880717  1
  I  I4  1  0.25138408  0.25138408  0.00000000  1
  I  I5  1  0.74861592  0.74861592  0.00000000  1
  I  I6  1  0.74861592  0.25138408  0.00000000  1
  I  I7  1  0.25138408  0.74861592  0.00000000  1
  Tl  Tl8  1  0.00000000  0.00000000  0.00000000  1
  Te  Te9  1  0.50000000  0.50000000  0.00000000  1
