# generated using pymatgen
data_Pu3HfSc3S8
_symmetry_space_group_name_H-M   'P 1'
_cell_length_a   7.55209784
_cell_length_b   7.56250943
_cell_length_c   7.63310554
_cell_angle_alpha   119.76565762
_cell_angle_beta   89.99111144
_cell_angle_gamma   119.95450583
_symmetry_Int_Tables_number   1
_chemical_formula_structural   Pu3HfSc3S8
_chemical_formula_sum   'Pu3 Hf1 Sc3 S8'
_cell_volume   309.58391083
_cell_formula_units_Z   1
loop_
 _symmetry_equiv_pos_site_id
 _symmetry_equiv_pos_as_xyz
  1  'x, y, z'
loop_
 _atom_site_type_symbol
 _atom_site_label
 _atom_site_symmetry_multiplicity
 _atom_site_fract_x
 _atom_site_fract_y
 _atom_site_fract_z
 _atom_site_occupancy
  Pu  Pu0  1  0.00000000  0.00000000  0.00000000  1
  Pu  Pu1  1  0.00000000  0.50000000  0.00000000  1
  Pu  Pu2  1  0.50000000  0.50000000  0.00000000  1
  Hf  Hf3  1  0.00000000  -0.00000000  0.50000000  1
  Sc  Sc4  1  0.50000000  -0.00000000  0.50000000  1
  Sc  Sc5  1  0.50000000  0.50000000  0.50000000  1
  Sc  Sc6  1  0.00000000  0.50000000  0.50000000  1
  S  S7  1  0.25661970  0.51328506  0.26932811  1
  S  S8  1  0.74338030  0.48671494  0.73067189  1
  S  S9  1  0.75568191  0.51133723  0.26848350  1
  S  S10  1  0.24431809  0.48866277  0.73151650  1
  S  S11  1  0.75604191  0.01449523  0.26958394  1
  S  S12  1  0.24395809  0.98550477  0.73041606  1
  S  S13  1  0.25850720  0.01448533  0.26953409  1
  S  S14  1  0.74149280  0.98551467  0.73046591  1
