# generated using pymatgen
data_GaSiPHS
_symmetry_space_group_name_H-M   'P 1'
_cell_length_a   8.46745499
_cell_length_b   3.54731052
_cell_length_c   6.29806659
_cell_angle_alpha   90.00000000
_cell_angle_beta   102.26221368
_cell_angle_gamma   90.00000000
_symmetry_Int_Tables_number   1
_chemical_formula_structural   GaSiPHS
_chemical_formula_sum   'Ga2 Si2 P2 H2 S2'
_cell_volume   184.85726508
_cell_formula_units_Z   2
loop_
 _symmetry_equiv_pos_site_id
 _symmetry_equiv_pos_as_xyz
  1  'x, y, z'
loop_
 _atom_site_type_symbol
 _atom_site_label
 _atom_site_symmetry_multiplicity
 _atom_site_fract_x
 _atom_site_fract_y
 _atom_site_fract_z
 _atom_site_occupancy
  Ga  Ga0  1  0.11215091  0.00000000  0.05328729  1
  Ga  Ga1  1  0.11215091  0.50000000  0.55328729  1
  Si  Si2  1  0.48778922  0.00000000  0.87705516  1
  Si  Si3  1  0.48778922  0.50000000  0.37705516  1
  P  P4  1  0.36718294  0.00000000  0.51404622  1
  P  P5  1  0.36718294  0.50000000  0.01404622  1
  H  H6  1  0.66868528  0.00000000  0.91665504  1
  H  H7  1  0.66868528  0.50000000  0.41665504  1
  S  S8  1  0.97564165  0.00000000  0.68519629  1
  S  S9  1  0.97564165  0.50000000  0.18519629  1
