# generated using pymatgen
data_BaSrNpS4
_symmetry_space_group_name_H-M   'P 1'
_cell_length_a   5.16244401
_cell_length_b   5.16244401
_cell_length_c   8.58050484
_cell_angle_alpha   107.50710267
_cell_angle_beta   107.50710267
_cell_angle_gamma   90.00000000
_symmetry_Int_Tables_number   1
_chemical_formula_structural   BaSrNpS4
_chemical_formula_sum   'Ba1 Sr1 Np1 S4'
_cell_volume   206.95127292
_cell_formula_units_Z   1
loop_
 _symmetry_equiv_pos_site_id
 _symmetry_equiv_pos_as_xyz
  1  'x, y, z'
loop_
 _atom_site_type_symbol
 _atom_site_label
 _atom_site_symmetry_multiplicity
 _atom_site_fract_x
 _atom_site_fract_y
 _atom_site_fract_z
 _atom_site_occupancy
  Ba  Ba0  1  0.63953532  0.63953532  0.27907064  1
  Sr  Sr1  1  0.36210422  0.36210422  0.72420843  1
  Np  Np2  1  0.00048671  0.00048671  0.00097341  1
  S  S3  1  0.99637226  0.49637226  0.99274452  1
  S  S4  1  0.49637226  0.99637226  0.99274452  1
  S  S5  1  0.83243765  0.83243765  0.66487531  1
  S  S6  1  0.17269158  0.17269158  0.34538316  1
