# generated using pymatgen
data_Er3UAg3S8
_symmetry_space_group_name_H-M   'P 1'
_cell_length_a   7.98496425
_cell_length_b   7.98151777
_cell_length_c   7.69542215
_cell_angle_alpha   121.48413275
_cell_angle_beta   90.00000000
_cell_angle_gamma   120.01428506
_symmetry_Int_Tables_number   1
_chemical_formula_structural   Er3UAg3S8
_chemical_formula_sum   'Er3 U1 Ag3 S8'
_cell_volume   338.73645906
_cell_formula_units_Z   1
loop_
 _symmetry_equiv_pos_site_id
 _symmetry_equiv_pos_as_xyz
  1  'x, y, z'
loop_
 _atom_site_type_symbol
 _atom_site_label
 _atom_site_symmetry_multiplicity
 _atom_site_fract_x
 _atom_site_fract_y
 _atom_site_fract_z
 _atom_site_occupancy
  Er  Er0  1  0.50000000  0.00000000  0.50000000  1
  Er  Er1  1  0.50000000  0.50000000  0.50000000  1
  Er  Er2  1  0.00000000  0.50000000  0.50000000  1
  U  U3  1  0.00000000  0.00000000  0.50000000  1
  Ag  Ag4  1  0.00000000  0.00000000  0.00000000  1
  Ag  Ag5  1  0.00000000  0.50000000  0.00000000  1
  Ag  Ag6  1  0.50000000  0.50000000  0.00000000  1
  S  S7  1  0.25279911  0.50559822  0.26021092  1
  S  S8  1  0.74720089  0.49440178  0.73978908  1
  S  S9  1  0.75515205  0.51030509  0.26541659  1
  S  S10  1  0.24484795  0.48969491  0.73458341  1
  S  S11  1  0.75496371  0.00839816  0.26523108  1
  S  S12  1  0.24503629  0.99160184  0.73476892  1
  S  S13  1  0.25343445  0.00839816  0.26523108  1
  S  S14  1  0.74656555  0.99160184  0.73476892  1
