# generated using pymatgen
data_SmCuO2
_symmetry_space_group_name_H-M   'P 1'
_cell_length_a   3.68562555
_cell_length_b   3.68560661
_cell_length_c   6.10083477
_cell_angle_alpha   72.41253961
_cell_angle_beta   72.41867932
_cell_angle_gamma   59.99982987
_symmetry_Int_Tables_number   1
_chemical_formula_structural   SmCuO2
_chemical_formula_sum   'Sm1 Cu1 O2'
_cell_volume   67.26084027
_cell_formula_units_Z   1
loop_
 _symmetry_equiv_pos_site_id
 _symmetry_equiv_pos_as_xyz
  1  'x, y, z'
loop_
 _atom_site_type_symbol
 _atom_site_label
 _atom_site_symmetry_multiplicity
 _atom_site_fract_x
 _atom_site_fract_y
 _atom_site_fract_z
 _atom_site_occupancy
  O  O0  1  0.89369383  0.89378773  0.31882461  1
  O  O1  1  0.10630617  0.10621227  0.68117539  1
  Cu  Cu2  1  0.00000000  0.00000000  0.00000000  1
  Sm  Sm3  1  0.50000000  0.50000000  0.50000000  1
