# generated using pymatgen
data_Na3Dy2SbTe6
_symmetry_space_group_name_H-M   'P 1'
_cell_length_a   7.69537389
_cell_length_b   7.69537389
_cell_length_c   7.97448269
_cell_angle_alpha   99.25108770
_cell_angle_beta   99.25108769
_cell_angle_gamma   120.00228595
_symmetry_Int_Tables_number   1
_chemical_formula_structural   Na3Dy2SbTe6
_chemical_formula_sum   'Na3 Dy2 Sb1 Te6'
_cell_volume   387.24503395
_cell_formula_units_Z   1
loop_
 _symmetry_equiv_pos_site_id
 _symmetry_equiv_pos_as_xyz
  1  'x, y, z'
loop_
 _atom_site_type_symbol
 _atom_site_label
 _atom_site_symmetry_multiplicity
 _atom_site_fract_x
 _atom_site_fract_y
 _atom_site_fract_z
 _atom_site_occupancy
  Na  Na0  1  0.16284053  0.83715947  0.50000000  1
  Na  Na1  1  0.83715947  0.16284053  0.50000000  1
  Na  Na2  1  0.50000000  0.50000000  0.50000000  1
  Dy  Dy3  1  0.33287734  0.66712266  0.00000000  1
  Dy  Dy4  1  0.66712266  0.33287734  0.00000000  1
  Sb  Sb5  1  0.00000000  0.00000000  0.00000000  1
  Te  Te6  1  0.92285912  0.59112574  0.76903506  1
  Te  Te7  1  0.74421866  0.74421866  0.22896174  1
  Te  Te8  1  0.07714088  0.40887426  0.23096494  1
  Te  Te9  1  0.59112574  0.92285912  0.76903506  1
  Te  Te10  1  0.25578134  0.25578134  0.77103826  1
  Te  Te11  1  0.40887426  0.07714088  0.23096494  1
