# generated using pymatgen
data_Ca4MgZn5
_symmetry_space_group_name_H-M   'P 1'
_cell_length_a   3.59790823
_cell_length_b   3.59790823
_cell_length_c   18.17759676
_cell_angle_alpha   90.00000000
_cell_angle_beta   90.00000000
_cell_angle_gamma   90.00000000
_symmetry_Int_Tables_number   1
_chemical_formula_structural   Ca4MgZn5
_chemical_formula_sum   'Ca4 Mg1 Zn5'
_cell_volume   235.30796541
_cell_formula_units_Z   1
loop_
 _symmetry_equiv_pos_site_id
 _symmetry_equiv_pos_as_xyz
  1  'x, y, z'
loop_
 _atom_site_type_symbol
 _atom_site_label
 _atom_site_symmetry_multiplicity
 _atom_site_fract_x
 _atom_site_fract_y
 _atom_site_fract_z
 _atom_site_occupancy
  Ca  Ca0  1  0.00000000  0.00000000  0.18766847  1
  Ca  Ca1  1  0.00000000  0.00000000  0.39555943  1
  Ca  Ca2  1  0.00000000  0.00000000  0.60444057  1
  Ca  Ca3  1  0.00000000  0.00000000  0.81233153  1
  Mg  Mg4  1  0.00000000  0.00000000  0.00000000  1
  Zn  Zn5  1  0.50000000  0.50000000  0.07876630  1
  Zn  Zn6  1  0.50000000  0.50000000  0.29104852  1
  Zn  Zn7  1  0.50000000  0.50000000  0.50000000  1
  Zn  Zn8  1  0.50000000  0.50000000  0.70895148  1
  Zn  Zn9  1  0.50000000  0.50000000  0.92123370  1
