# generated using pymatgen
data_Zn2Ni2Rh
_symmetry_space_group_name_H-M   'P 1'
_cell_length_a   4.55713212
_cell_length_b   4.55712947
_cell_length_c   5.84798209
_cell_angle_alpha   49.21212420
_cell_angle_beta   49.21225781
_cell_angle_gamma   48.46102073
_symmetry_Int_Tables_number   1
_chemical_formula_structural   Zn2Ni2Rh
_chemical_formula_sum   'Zn2 Ni2 Rh1'
_cell_volume   63.42562778
_cell_formula_units_Z   1
loop_
 _symmetry_equiv_pos_site_id
 _symmetry_equiv_pos_as_xyz
  1  'x, y, z'
loop_
 _atom_site_type_symbol
 _atom_site_label
 _atom_site_symmetry_multiplicity
 _atom_site_fract_x
 _atom_site_fract_y
 _atom_site_fract_z
 _atom_site_occupancy
  Zn  Zn0  1  0.70058837  0.20058937  0.39101472  1
  Zn  Zn1  1  0.29941163  0.79941063  0.60898528  1
  Ni  Ni2  1  0.89721828  0.39721828  0.79933322  1
  Ni  Ni3  1  0.10278172  0.60278172  0.20066678  1
  Rh  Rh4  1  0.50000000  0.00000000  0.00000000  1
