# generated using pymatgen
data_PuAl3
_symmetry_space_group_name_H-M   'P 1'
_cell_length_a   6.07703788
_cell_length_b   6.07703788
_cell_length_c   14.50318012
_cell_angle_alpha   90.00000000
_cell_angle_beta   90.00000000
_cell_angle_gamma   119.99999996
_symmetry_Int_Tables_number   1
_chemical_formula_structural   PuAl3
_chemical_formula_sum   'Pu6 Al18'
_cell_volume   463.85021146
_cell_formula_units_Z   6
loop_
 _symmetry_equiv_pos_site_id
 _symmetry_equiv_pos_as_xyz
  1  'x, y, z'
loop_
 _atom_site_type_symbol
 _atom_site_label
 _atom_site_symmetry_multiplicity
 _atom_site_fract_x
 _atom_site_fract_y
 _atom_site_fract_z
 _atom_site_occupancy
  Pu  Pu0  1  0.00000000  0.00000000  0.25000000  1
  Pu  Pu1  1  0.00000000  0.00000000  0.75000000  1
  Pu  Pu2  1  0.33333333  0.66666667  0.08893749  1
  Pu  Pu3  1  0.66666667  0.33333333  0.58893749  1
  Pu  Pu4  1  0.66666667  0.33333333  0.91106251  1
  Pu  Pu5  1  0.33333333  0.66666667  0.41106251  1
  Al  Al6  1  0.51243403  0.02486807  0.25000000  1
  Al  Al7  1  0.48756597  0.51243403  0.75000000  1
  Al  Al8  1  0.02486807  0.51243403  0.75000000  1
  Al  Al9  1  0.97513193  0.48756597  0.25000000  1
  Al  Al10  1  0.51243403  0.48756597  0.25000000  1
  Al  Al11  1  0.48756597  0.97513193  0.75000000  1
  Al  Al12  1  0.16796760  0.33593520  0.58234700  1
  Al  Al13  1  0.83203240  0.16796760  0.08234700  1
  Al  Al14  1  0.33593520  0.16796760  0.08234700  1
  Al  Al15  1  0.66406480  0.83203240  0.58234700  1
  Al  Al16  1  0.16796760  0.83203240  0.58234700  1
  Al  Al17  1  0.83203240  0.66406480  0.41765300  1
  Al  Al18  1  0.83203240  0.16796760  0.41765300  1
  Al  Al19  1  0.83203240  0.66406480  0.08234700  1
  Al  Al20  1  0.33593520  0.16796760  0.41765300  1
  Al  Al21  1  0.66406480  0.83203240  0.91765300  1
  Al  Al22  1  0.16796760  0.33593520  0.91765300  1
  Al  Al23  1  0.16796760  0.83203240  0.91765300  1
