# generated using pymatgen
data_CrAsO4F
_symmetry_space_group_name_H-M   'P 1'
_cell_length_a   5.15614948
_cell_length_b   5.32771288
_cell_length_c   7.49346090
_cell_angle_alpha   90.00000000
_cell_angle_beta   118.39305876
_cell_angle_gamma   90.00000000
_symmetry_Int_Tables_number   1
_chemical_formula_structural   CrAsO4F
_chemical_formula_sum   'Cr2 As2 O8 F2'
_cell_volume   181.08663700
_cell_formula_units_Z   2
loop_
 _symmetry_equiv_pos_site_id
 _symmetry_equiv_pos_as_xyz
  1  'x, y, z'
loop_
 _atom_site_type_symbol
 _atom_site_label
 _atom_site_symmetry_multiplicity
 _atom_site_fract_x
 _atom_site_fract_y
 _atom_site_fract_z
 _atom_site_occupancy
  Cr  Cr0  1  0.78593976  0.75000000  0.45111630  1
  Cr  Cr1  1  0.21406024  0.25000000  0.54888370  1
  As  As2  1  0.16909469  0.75000000  0.26449938  1
  As  As3  1  0.83090531  0.25000000  0.73550062  1
  O  O4  1  0.01190350  0.48882260  0.66532253  1
  O  O5  1  0.98809650  0.98882260  0.33467747  1
  O  O6  1  0.98809650  0.51117740  0.33467747  1
  O  O7  1  0.01190350  0.01117740  0.66532253  1
  O  O8  1  0.44485518  0.75000000  0.19029897  1
  O  O9  1  0.55514482  0.25000000  0.80970103  1
  O  O10  1  0.50107217  0.75000000  0.52820909  1
  O  O11  1  0.49892783  0.25000000  0.47179091  1
  F  F12  1  0.88758813  0.75000000  0.00972967  1
  F  F13  1  0.11241187  0.25000000  0.99027033  1
