# generated using pymatgen
data_Pu2ScF11
_symmetry_space_group_name_H-M   'P 1'
_cell_length_a   8.36124408
_cell_length_b   8.39490744
_cell_length_c   8.39490815
_cell_angle_alpha   73.50608747
_cell_angle_beta   60.13256157
_cell_angle_gamma   60.13256570
_symmetry_Int_Tables_number   1
_chemical_formula_structural   Pu2ScF11
_chemical_formula_sum   'Pu4 Sc2 F22'
_cell_volume   442.61419342
_cell_formula_units_Z   2
loop_
 _symmetry_equiv_pos_site_id
 _symmetry_equiv_pos_as_xyz
  1  'x, y, z'
loop_
 _atom_site_type_symbol
 _atom_site_label
 _atom_site_symmetry_multiplicity
 _atom_site_fract_x
 _atom_site_fract_y
 _atom_site_fract_z
 _atom_site_occupancy
  Pu  Pu0  1  0.65660048  0.68260650  0.31739350  1
  Pu  Pu1  1  0.34339952  0.31739350  0.68260650  1
  Pu  Pu2  1  0.84339952  0.18260650  0.81739350  1
  Pu  Pu3  1  0.15660048  0.81739350  0.18260650  1
  Sc  Sc4  1  0.75000000  0.75000000  0.75000000  1
  Sc  Sc5  1  0.25000000  0.25000000  0.25000000  1
  F  F6  1  0.64932723  0.70928221  0.57261948  1
  F  F7  1  0.35067277  0.29071779  0.42738052  1
  F  F8  1  0.06877007  0.57261948  0.70928221  1
  F  F9  1  0.85067277  0.92738052  0.79071779  1
  F  F10  1  0.93122993  0.42738052  0.29071779  1
  F  F11  1  0.14932723  0.07261948  0.20928221  1
  F  F12  1  0.43122993  0.79071779  0.92738052  1
  F  F13  1  0.56877007  0.20928221  0.07261948  1
  F  F14  1  0.50000000  0.50000000  0.50000000  1
  F  F15  1  0.00000000  0.00000000  0.00000000  1
  F  F16  1  0.87031377  0.79152167  0.20847933  1
  F  F17  1  0.12968623  0.20847833  0.79152067  1
  F  F18  1  0.62968623  0.29152167  0.70847833  1
  F  F19  1  0.37031477  0.70847933  0.29152067  1
  F  F20  1  0.44084022  0.97479999  0.31273883  1
  F  F21  1  0.55915978  0.02520001  0.68726117  1
  F  F22  1  0.27162095  0.31273883  0.97479999  1
  F  F23  1  0.05915978  0.18726117  0.52520001  1
  F  F24  1  0.72837905  0.68726117  0.02520001  1
  F  F25  1  0.94084022  0.81273883  0.47479999  1
  F  F26  1  0.22837905  0.52520001  0.18726117  1
  F  F27  1  0.77162095  0.47479999  0.81273883  1
