# generated using pymatgen
data_NiS
_symmetry_space_group_name_H-M   'P 1'
_cell_length_a   5.90066840
_cell_length_b   7.15069508
_cell_length_c   17.89448159
_cell_angle_alpha   90.00000000
_cell_angle_beta   90.00000000
_cell_angle_gamma   33.99249034
_symmetry_Int_Tables_number   1
_chemical_formula_structural   NiS
_chemical_formula_sum   'Ni4 S4'
_cell_volume   422.12963115
_cell_formula_units_Z   4
loop_
 _symmetry_equiv_pos_site_id
 _symmetry_equiv_pos_as_xyz
  1  'x, y, z'
loop_
 _atom_site_type_symbol
 _atom_site_label
 _atom_site_symmetry_multiplicity
 _atom_site_fract_x
 _atom_site_fract_y
 _atom_site_fract_z
 _atom_site_occupancy
  Ni  Ni0  1  0.10180139  0.75147118  0.54854469  1
  Ni  Ni1  1  0.60183577  0.25146271  0.45145597  1
  Ni  Ni2  1  0.39816850  0.74853743  0.45145779  1
  Ni  Ni3  1  0.89819430  0.24852870  0.54854650  1
  S  S4  1  0.50836978  0.25249202  0.58087242  1
  S  S5  1  0.00836625  0.75248897  0.41912239  1
  S  S6  1  0.99164008  0.24751114  0.41912511  1
  S  S7  1  0.49162394  0.74750786  0.58087514  1
