# generated using pymatgen
data_AlHPt
_symmetry_space_group_name_H-M   'P 1'
_cell_length_a   5.53365869
_cell_length_b   9.48440029
_cell_length_c   17.64496456
_cell_angle_alpha   90.00000000
_cell_angle_beta   90.00000000
_cell_angle_gamma   90.00000000
_symmetry_Int_Tables_number   1
_chemical_formula_structural   AlHPt
_chemical_formula_sum   'Al24 H24 Pt24'
_cell_volume   926.06833440
_cell_formula_units_Z   24
loop_
 _symmetry_equiv_pos_site_id
 _symmetry_equiv_pos_as_xyz
  1  'x, y, z'
loop_
 _atom_site_type_symbol
 _atom_site_label
 _atom_site_symmetry_multiplicity
 _atom_site_fract_x
 _atom_site_fract_y
 _atom_site_fract_z
 _atom_site_occupancy
  H  H0  1  0.55859626  0.55581596  0.81120804  1
  H  H1  1  0.44140374  0.55581596  0.31120804  1
  H  H2  1  0.94695238  0.45596296  0.68267672  1
  H  H3  1  0.05304762  0.45596296  0.18267672  1
  H  H4  1  0.53003343  0.44687411  0.94190545  1
  H  H5  1  0.46996657  0.44687411  0.44190545  1
  H  H6  1  0.03003343  0.05312589  0.94190545  1
  H  H7  1  0.96996657  0.05312589  0.44190545  1
  H  H8  1  0.44695238  0.04403704  0.68267672  1
  H  H9  1  0.55304762  0.04403704  0.18267672  1
  H  H10  1  0.05859626  0.94418404  0.81120804  1
  H  H11  1  0.94140374  0.94418404  0.31120804  1
  H  H12  1  0.94140374  0.05581596  0.18879196  1
  H  H13  1  0.05859626  0.05581596  0.68879196  1
  H  H14  1  0.44695238  0.95596296  0.81732328  1
  H  H15  1  0.55304762  0.95596296  0.31732328  1
  H  H16  1  0.96996657  0.94687411  0.05809455  1
  H  H17  1  0.03003343  0.94687411  0.55809455  1
  H  H18  1  0.53003343  0.55312589  0.55809455  1
  H  H19  1  0.46996657  0.55312589  0.05809455  1
  H  H20  1  0.05304762  0.54403704  0.31732328  1
  H  H21  1  0.94695238  0.54403704  0.81732328  1
  H  H22  1  0.55859626  0.44418404  0.68879196  1
  H  H23  1  0.44140374  0.44418404  0.18879196  1
  Al  Al24  1  0.00415282  0.26959825  0.93449246  1
  Al  Al25  1  0.99584718  0.26959825  0.43449246  1
  Al  Al26  1  0.00890805  0.25630153  0.26965362  1
  Al  Al27  1  0.99109195  0.25630153  0.76965362  1
  Al  Al28  1  0.48721398  0.23717386  0.59790262  1
  Al  Al29  1  0.51278602  0.23717386  0.09790262  1
  Al  Al30  1  0.98721398  0.26282614  0.59790262  1
  Al  Al31  1  0.01278602  0.26282614  0.09790262  1
  Al  Al32  1  0.49109195  0.24369847  0.76965362  1
  Al  Al33  1  0.50890805  0.24369847  0.26965362  1
  Al  Al34  1  0.50415282  0.23040175  0.93449246  1
  Al  Al35  1  0.49584718  0.23040175  0.43449246  1
  Al  Al36  1  0.49584718  0.76959825  0.06550754  1
  Al  Al37  1  0.50415282  0.76959825  0.56550754  1
  Al  Al38  1  0.50890805  0.75630153  0.23034638  1
  Al  Al39  1  0.49109195  0.75630153  0.73034638  1
  Al  Al40  1  0.98721398  0.73717386  0.90209738  1
  Al  Al41  1  0.01278602  0.73717386  0.40209738  1
  Al  Al42  1  0.51278602  0.76282614  0.40209738  1
  Al  Al43  1  0.48721398  0.76282614  0.90209738  1
  Al  Al44  1  0.00890805  0.74369847  0.23034638  1
  Al  Al45  1  0.99109195  0.74369847  0.73034638  1
  Al  Al46  1  0.00415282  0.73040175  0.56550754  1
  Al  Al47  1  0.99584718  0.73040175  0.06550754  1
  Pt  Pt48  1  0.74870085  0.40903532  0.18400478  1
  Pt  Pt49  1  0.25129915  0.40903532  0.68400478  1
  Pt  Pt50  1  0.73202451  0.40841521  0.85339910  1
  Pt  Pt51  1  0.26797549  0.40841521  0.35339910  1
  Pt  Pt52  1  0.72115536  0.40969529  0.51435648  1
  Pt  Pt53  1  0.27884464  0.40969529  0.01435648  1
  Pt  Pt54  1  0.77884464  0.09030471  0.01435648  1
  Pt  Pt55  1  0.22115536  0.09030471  0.51435648  1
  Pt  Pt56  1  0.23202451  0.09158479  0.85339910  1
  Pt  Pt57  1  0.76797549  0.09158479  0.35339910  1
  Pt  Pt58  1  0.75129915  0.09096468  0.68400478  1
  Pt  Pt59  1  0.24870085  0.09096468  0.18400478  1
  Pt  Pt60  1  0.24870085  0.90903532  0.31599522  1
  Pt  Pt61  1  0.75129915  0.90903532  0.81599522  1
  Pt  Pt62  1  0.23202451  0.90841521  0.64660090  1
  Pt  Pt63  1  0.76797549  0.90841521  0.14660090  1
  Pt  Pt64  1  0.77884464  0.90969529  0.48564352  1
  Pt  Pt65  1  0.22115536  0.90969529  0.98564352  1
  Pt  Pt66  1  0.27884464  0.59030471  0.48564352  1
  Pt  Pt67  1  0.72115536  0.59030471  0.98564352  1
  Pt  Pt68  1  0.73202451  0.59158479  0.64660090  1
  Pt  Pt69  1  0.26797549  0.59158479  0.14660090  1
  Pt  Pt70  1  0.74870085  0.59096468  0.31599522  1
  Pt  Pt71  1  0.25129915  0.59096468  0.81599522  1
