# generated using pymatgen
data_Pr12SmTl3
_symmetry_space_group_name_H-M   'P 1'
_cell_length_a   5.04458536
_cell_length_b   5.04458536
_cell_length_c   20.65160998
_cell_angle_alpha   90.00000000
_cell_angle_beta   90.00000000
_cell_angle_gamma   90.00000000
_symmetry_Int_Tables_number   1
_chemical_formula_structural   Pr12SmTl3
_chemical_formula_sum   'Pr12 Sm1 Tl3'
_cell_volume   525.53889655
_cell_formula_units_Z   1
loop_
 _symmetry_equiv_pos_site_id
 _symmetry_equiv_pos_as_xyz
  1  'x, y, z'
loop_
 _atom_site_type_symbol
 _atom_site_label
 _atom_site_symmetry_multiplicity
 _atom_site_fract_x
 _atom_site_fract_y
 _atom_site_fract_z
 _atom_site_occupancy
  Pr  Pr0  1  0.50000000  0.50000000  0.00000000  1
  Pr  Pr1  1  0.50000000  0.50000000  0.25543906  1
  Pr  Pr2  1  0.50000000  0.50000000  0.50000000  1
  Pr  Pr3  1  0.50000000  0.50000000  0.74456094  1
  Pr  Pr4  1  0.50000000  0.00000000  0.13155904  1
  Pr  Pr5  1  0.50000000  0.00000000  0.37756128  1
  Pr  Pr6  1  0.50000000  0.00000000  0.62243872  1
  Pr  Pr7  1  0.50000000  0.00000000  0.86844096  1
  Pr  Pr8  1  0.00000000  0.50000000  0.13155904  1
  Pr  Pr9  1  0.00000000  0.50000000  0.37756128  1
  Pr  Pr10  1  0.00000000  0.50000000  0.62243872  1
  Pr  Pr11  1  0.00000000  0.50000000  0.86844096  1
  Sm  Sm12  1  0.00000000  0.00000000  0.00000000  1
  Tl  Tl13  1  0.00000000  0.00000000  0.25649083  1
  Tl  Tl14  1  0.00000000  0.00000000  0.50000000  1
  Tl  Tl15  1  0.00000000  0.00000000  0.74350917  1
