# generated using pymatgen
data_PuI5
_symmetry_space_group_name_H-M   'P 1'
_cell_length_a   7.79229479
_cell_length_b   7.79229671
_cell_length_c   20.79159800
_cell_angle_alpha   90.00000000
_cell_angle_beta   90.00000000
_cell_angle_gamma   115.86890757
_symmetry_Int_Tables_number   1
_chemical_formula_structural   PuI5
_chemical_formula_sum   'Pu1 I5'
_cell_volume   1135.95766876
_cell_formula_units_Z   1
loop_
 _symmetry_equiv_pos_site_id
 _symmetry_equiv_pos_as_xyz
  1  'x, y, z'
loop_
 _atom_site_type_symbol
 _atom_site_label
 _atom_site_symmetry_multiplicity
 _atom_site_fract_x
 _atom_site_fract_y
 _atom_site_fract_z
 _atom_site_occupancy
  Pu  Pu0  1  0.05557229  0.05557227  0.50000000  1
  I  I1  1  0.08385295  0.43886840  0.50000000  1
  I  I2  1  0.43886838  0.08385296  0.50000000  1
  I  I3  1  0.05209304  0.05209303  0.36072263  1
  I  I4  1  0.05209305  0.05209305  0.63927737  1
  I  I5  1  0.70385030  0.70385030  0.50000000  1
