# generated using pymatgen
data_Y6GaAs2
_symmetry_space_group_name_H-M   'P 1'
_cell_length_a   4.23551132
_cell_length_b   7.94968229
_cell_length_c   7.94968228
_cell_angle_alpha   119.99999999
_cell_angle_beta   90.00000000
_cell_angle_gamma   90.00000000
_symmetry_Int_Tables_number   1
_chemical_formula_structural   Y6GaAs2
_chemical_formula_sum   'Y6 Ga1 As2'
_cell_volume   231.81205817
_cell_formula_units_Z   1
loop_
 _symmetry_equiv_pos_site_id
 _symmetry_equiv_pos_as_xyz
  1  'x, y, z'
loop_
 _atom_site_type_symbol
 _atom_site_label
 _atom_site_symmetry_multiplicity
 _atom_site_fract_x
 _atom_site_fract_y
 _atom_site_fract_z
 _atom_site_occupancy
  Y  Y0  1  0.00000000  0.74506645  0.74506645  1
  Y  Y1  1  0.50000000  0.00000000  0.58946983  1
  Y  Y2  1  0.50000000  0.58946983  0.00000000  1
  Y  Y3  1  0.00000000  0.25493355  1.00000000  1
  Y  Y4  1  0.00000000  1.00000000  0.25493355  1
  Y  Y5  1  0.50000000  0.41053017  0.41053017  1
  As  As6  1  0.00000000  0.66666667  0.33333333  1
  As  As7  1  0.00000000  0.33333333  0.66666667  1
  Ga  Ga8  1  0.50000000  0.00000000  0.00000000  1
