# generated using pymatgen
data_Nd2HoPuAs4
_symmetry_space_group_name_H-M   'P 1'
_cell_length_a   4.20214129
_cell_length_b   7.25194192
_cell_length_c   7.25816805
_cell_angle_alpha   109.45220861
_cell_angle_beta   90.00000000
_cell_angle_gamma   90.00000000
_symmetry_Int_Tables_number   1
_chemical_formula_structural   Nd2HoPuAs4
_chemical_formula_sum   'Nd2 Ho1 Pu1 As4'
_cell_volume   208.55790186
_cell_formula_units_Z   1
loop_
 _symmetry_equiv_pos_site_id
 _symmetry_equiv_pos_as_xyz
  1  'x, y, z'
loop_
 _atom_site_type_symbol
 _atom_site_label
 _atom_site_symmetry_multiplicity
 _atom_site_fract_x
 _atom_site_fract_y
 _atom_site_fract_z
 _atom_site_occupancy
  Nd  Nd0  1  0.50000000  -0.00000000  0.50000000  1
  Nd  Nd1  1  0.00000000  0.50000000  0.50000000  1
  Ho  Ho2  1  0.50000000  0.50000000  0.00000000  1
  Pu  Pu3  1  0.00000000  0.00000000  0.00000000  1
  As  As4  1  0.50000000  0.24566276  0.23836098  1
  As  As5  1  0.50000000  0.75433724  0.76163902  1
  As  As6  1  0.00000000  0.25327854  0.76113424  1
  As  As7  1  0.00000000  0.74672146  0.23886576  1
