# generated using pymatgen
data_Y2NiHg
_symmetry_space_group_name_H-M   'P 1'
_cell_length_a   3.59288517
_cell_length_b   3.59288518
_cell_length_c   7.29482200
_cell_angle_alpha   90.00000000
_cell_angle_beta   90.00000000
_cell_angle_gamma   90.01671238
_symmetry_Int_Tables_number   1
_chemical_formula_structural   Y2NiHg
_chemical_formula_sum   'Y2 Ni1 Hg1'
_cell_volume   94.16756836
_cell_formula_units_Z   1
loop_
 _symmetry_equiv_pos_site_id
 _symmetry_equiv_pos_as_xyz
  1  'x, y, z'
loop_
 _atom_site_type_symbol
 _atom_site_label
 _atom_site_symmetry_multiplicity
 _atom_site_fract_x
 _atom_site_fract_y
 _atom_site_fract_z
 _atom_site_occupancy
  Hg  Hg0  1  0.00000000  0.00000000  0.53208725  1
  Ni  Ni1  1  0.50000000  0.50000000  0.74259352  1
  Y  Y2  1  0.00000000  0.00000000  0.93706090  1
  Y  Y3  1  0.50000000  0.50000000  0.28825833  1
