# generated using pymatgen
data_CrTeHRhAu2
_symmetry_space_group_name_H-M   'P 1'
_cell_length_a   4.59350084
_cell_length_b   4.60418195
_cell_length_c   5.56977574
_cell_angle_alpha   70.38644160
_cell_angle_beta   70.21683059
_cell_angle_gamma   66.15998088
_symmetry_Int_Tables_number   1
_chemical_formula_structural   CrTeHRhAu2
_chemical_formula_sum   'Cr1 Te1 H1 Rh1 Au2'
_cell_volume   98.64342319
_cell_formula_units_Z   1
loop_
 _symmetry_equiv_pos_site_id
 _symmetry_equiv_pos_as_xyz
  1  'x, y, z'
loop_
 _atom_site_type_symbol
 _atom_site_label
 _atom_site_symmetry_multiplicity
 _atom_site_fract_x
 _atom_site_fract_y
 _atom_site_fract_z
 _atom_site_occupancy
  Cr  Cr0  1  0.38276163  0.35680990  0.32804722  1
  Te  Te1  1  0.55124049  0.52821330  0.68956124  1
  H  H2  1  0.15333041  0.12955631  0.66045085  1
  Rh  Rh3  1  0.95657958  0.93376525  0.61327583  1
  Au  Au4  1  0.77573480  0.75043927  0.15683249  1
  Au  Au5  1  0.15053309  0.12572597  0.06444238  1
