# generated using pymatgen
data_Zr2ScIr
_symmetry_space_group_name_H-M   'P 1'
_cell_length_a   5.74571005
_cell_length_b   5.74571005
_cell_length_c   5.74571005
_cell_angle_alpha   145.48422044
_cell_angle_beta   130.47804154
_cell_angle_gamma   61.76252585
_symmetry_Int_Tables_number   1
_chemical_formula_structural   Zr2ScIr
_chemical_formula_sum   'Zr2 Sc1 Ir1'
_cell_volume   80.91257673
_cell_formula_units_Z   1
loop_
 _symmetry_equiv_pos_site_id
 _symmetry_equiv_pos_as_xyz
  1  'x, y, z'
loop_
 _atom_site_type_symbol
 _atom_site_label
 _atom_site_symmetry_multiplicity
 _atom_site_fract_x
 _atom_site_fract_y
 _atom_site_fract_z
 _atom_site_occupancy
  Sc  Sc0  1  0.27980814  0.77980814  0.50000000  1
  Ir  Ir1  1  0.50095115  0.50095115  1.00000000  1
  Zr  Zr2  1  0.99808803  0.99808803  1.00000000  1
  Zr  Zr3  1  0.72115267  0.22115267  0.50000000  1
