# generated using pymatgen
data_Sr5(NdH4)3
_symmetry_space_group_name_H-M   'P 1'
_cell_length_a   12.22149887
_cell_length_b   12.22149887
_cell_length_c   12.22149887
_cell_angle_alpha   109.47122062
_cell_angle_beta   109.47122065
_cell_angle_gamma   109.47122066
_symmetry_Int_Tables_number   1
_chemical_formula_structural   Sr5(NdH4)3
_chemical_formula_sum   'Sr20 Nd12 H48'
_cell_volume   1405.24330483
_cell_formula_units_Z   4
loop_
 _symmetry_equiv_pos_site_id
 _symmetry_equiv_pos_as_xyz
  1  'x, y, z'
loop_
 _atom_site_type_symbol
 _atom_site_label
 _atom_site_symmetry_multiplicity
 _atom_site_fract_x
 _atom_site_fract_y
 _atom_site_fract_z
 _atom_site_occupancy
  Nd  Nd0  1  0.75000000  0.37500000  0.12500000  1
  Nd  Nd1  1  0.87500000  0.75000000  0.12500000  1
  Nd  Nd2  1  0.37500000  0.75000000  0.62500000  1
  Nd  Nd3  1  0.25000000  0.12500000  0.37500000  1
  Nd  Nd4  1  0.87500000  0.12500000  0.25000000  1
  Nd  Nd5  1  0.37500000  0.62500000  0.25000000  1
  Nd  Nd6  1  0.62500000  0.37500000  0.75000000  1
  Nd  Nd7  1  0.12500000  0.87500000  0.75000000  1
  Nd  Nd8  1  0.75000000  0.87500000  0.62500000  1
  Nd  Nd9  1  0.62500000  0.25000000  0.37500000  1
  Nd  Nd10  1  0.12500000  0.25000000  0.87500000  1
  Nd  Nd11  1  0.25000000  0.62500000  0.87500000  1
  Sr  Sr12  1  0.12500000  0.37500000  0.25000000  1
  Sr  Sr13  1  -0.00000000  0.50000000  0.00000000  1
  Sr  Sr14  1  0.00000000  0.00000000  0.00000000  1
  Sr  Sr15  1  0.37500000  0.25000000  0.12500000  1
  Sr  Sr16  1  0.50000000  -0.00000000  0.50000000  1
  Sr  Sr17  1  0.50000000  0.50000000  0.00000000  1
  Sr  Sr18  1  0.12500000  0.75000000  0.37500000  1
  Sr  Sr19  1  0.75000000  0.12500000  0.87500000  1
  Sr  Sr20  1  0.75000000  0.62500000  0.37500000  1
  Sr  Sr21  1  0.37500000  0.12500000  0.75000000  1
  Sr  Sr22  1  0.62500000  0.87500000  0.25000000  1
  Sr  Sr23  1  0.50000000  0.50000000  0.50000000  1
  Sr  Sr24  1  0.50000000  0.00000000  0.00000000  1
  Sr  Sr25  1  -0.00000000  -0.00000000  0.50000000  1
  Sr  Sr26  1  0.25000000  0.37500000  0.62500000  1
  Sr  Sr27  1  0.25000000  0.87500000  0.12500000  1
  Sr  Sr28  1  -0.00000000  0.50000000  0.50000000  1
  Sr  Sr29  1  0.87500000  0.25000000  0.62500000  1
  Sr  Sr30  1  0.62500000  0.75000000  0.87500000  1
  Sr  Sr31  1  0.87500000  0.62500000  0.75000000  1
  H  H32  1  0.73202018  0.15550149  0.07187386  1
  H  H33  1  0.33985368  0.57187386  0.41637237  1
  H  H34  1  0.92812614  0.34449851  0.26797982  1
  H  H35  1  0.57187386  0.23202018  0.15550149  1
  H  H36  1  0.57651870  0.73202018  0.66014632  1
  H  H37  1  0.92812614  0.58362763  0.16014632  1
  H  H38  1  0.33985368  0.76797982  0.42348130  1
  H  H39  1  0.08362763  0.92348130  0.15550149  1
  H  H40  1  0.58362763  0.92812614  0.66014632  1
  H  H41  1  0.73202018  0.57651870  0.16014632  1
  H  H42  1  0.76797982  0.42812614  0.34449851  1
  H  H43  1  0.83985368  0.91637237  0.07187386  1
  H  H44  1  0.15550149  0.73202018  0.57187386  1
  H  H45  1  0.34449851  0.41637237  0.07651870  1
  H  H46  1  0.07651870  0.91637237  0.34449851  1
  H  H47  1  0.42348130  0.15550149  0.58362763  1
  H  H48  1  0.07651870  0.16014632  0.23202018  1
  H  H49  1  0.42812614  0.66014632  0.08362763  1
  H  H50  1  0.83985368  0.92348130  0.26797982  1
  H  H51  1  0.15550149  0.42348130  0.08362763  1
  H  H52  1  0.34449851  0.92812614  0.76797982  1
  H  H53  1  0.58362763  0.65550149  0.42348130  1
  H  H54  1  0.91637237  0.83985368  0.57187386  1
  H  H55  1  0.76797982  0.33985368  0.92348130  1
  H  H56  1  0.41637237  0.34449851  0.57651870  1
  H  H57  1  0.08362763  0.16014632  0.42812614  1
  H  H58  1  0.23202018  0.66014632  0.07651870  1
  H  H59  1  0.16014632  0.07651870  0.73202018  1
  H  H60  1  0.65550149  0.07187386  0.23202018  1
  H  H61  1  0.84449851  0.57651870  0.91637237  1
  H  H62  1  0.57187386  0.33985368  0.91637237  1
  H  H63  1  0.57651870  0.84449851  0.41637237  1
  H  H64  1  0.92348130  0.83985368  0.76797982  1
  H  H65  1  0.92348130  0.08362763  0.65550149  1
  H  H66  1  0.84449851  0.26797982  0.42812614  1
  H  H67  1  0.16014632  0.08362763  0.92812614  1
  H  H68  1  0.65550149  0.58362763  0.92348130  1
  H  H69  1  0.41637237  0.07187386  0.33985368  1
  H  H70  1  0.26797982  0.42348130  0.83985368  1
  H  H71  1  0.23202018  0.57187386  0.65550149  1
  H  H72  1  0.91637237  0.07651870  0.84449851  1
  H  H73  1  0.66014632  0.23202018  0.57651870  1
  H  H74  1  0.42812614  0.76797982  0.84449851  1
  H  H75  1  0.07187386  0.41637237  0.83985368  1
  H  H76  1  0.42348130  0.26797982  0.33985368  1
  H  H77  1  0.07187386  0.65550149  0.73202018  1
  H  H78  1  0.66014632  0.42812614  0.58362763  1
  H  H79  1  0.26797982  0.84449851  0.92812614  1
