# generated using pymatgen
data_Pm2NbSnN5
_symmetry_space_group_name_H-M   'P 1'
_cell_length_a   3.34149120
_cell_length_b   7.21406895
_cell_length_c   10.59241490
_cell_angle_alpha   90.00000000
_cell_angle_beta   90.00000000
_cell_angle_gamma   103.39102121
_symmetry_Int_Tables_number   1
_chemical_formula_structural   Pm2NbSnN5
_chemical_formula_sum   'Pm4 Nb2 Sn2 N10'
_cell_volume   248.39599851
_cell_formula_units_Z   2
loop_
 _symmetry_equiv_pos_site_id
 _symmetry_equiv_pos_as_xyz
  1  'x, y, z'
loop_
 _atom_site_type_symbol
 _atom_site_label
 _atom_site_symmetry_multiplicity
 _atom_site_fract_x
 _atom_site_fract_y
 _atom_site_fract_z
 _atom_site_occupancy
  Pm  Pm0  1  0.86497224  0.72994448  0.78181356  1
  Pm  Pm1  1  0.11356333  0.22712666  0.70267315  1
  Pm  Pm2  1  0.13502776  0.27005552  0.28181356  1
  Pm  Pm3  1  0.88643667  0.77287334  0.20267315  1
  Nb  Nb4  1  0.77323408  0.54646816  0.50621259  1
  Nb  Nb5  1  0.22676592  0.45353184  0.00621259  1
  Sn  Sn6  1  0.52300447  0.04600894  0.96975081  1
  Sn  Sn7  1  0.47699553  0.95399106  0.46975081  1
  N  N8  1  0.36537135  0.73074271  0.00176184  1
  N  N9  1  0.69633823  0.39267647  0.87689436  1
  N  N10  1  0.49676597  0.99353194  0.77912105  1
  N  N11  1  0.28023550  0.56047099  0.64056194  1
  N  N12  1  0.93883423  0.87766845  0.56518070  1
  N  N13  1  0.63462865  0.26925729  0.50176184  1
  N  N14  1  0.30366177  0.60732353  0.37689436  1
  N  N15  1  0.50323403  0.00646806  0.27912105  1
  N  N16  1  0.71976450  0.43952901  0.14056194  1
  N  N17  1  0.06116577  0.12233155  0.06518070  1
