# generated using pymatgen
data_Sr(YPd)4
_symmetry_space_group_name_H-M   'P 1'
_cell_length_a   5.68099263
_cell_length_b   9.41599646
_cell_length_c   9.41599646
_cell_angle_alpha   90.00000000
_cell_angle_beta   90.00000000
_cell_angle_gamma   90.00000000
_symmetry_Int_Tables_number   1
_chemical_formula_structural   Sr(YPd)4
_chemical_formula_sum   'Sr2 Y8 Pd8'
_cell_volume   503.68242698
_cell_formula_units_Z   2
loop_
 _symmetry_equiv_pos_site_id
 _symmetry_equiv_pos_as_xyz
  1  'x, y, z'
loop_
 _atom_site_type_symbol
 _atom_site_label
 _atom_site_symmetry_multiplicity
 _atom_site_fract_x
 _atom_site_fract_y
 _atom_site_fract_z
 _atom_site_occupancy
  Sr  Sr0  1  0.00000000  0.00000000  0.00000000  1
  Sr  Sr1  1  0.50000000  0.50000000  0.50000000  1
  Y  Y2  1  0.41442571  0.34072427  0.89612685  1
  Y  Y3  1  0.91442571  0.60387315  0.84072427  1
  Y  Y4  1  0.41442571  0.65927573  0.10387315  1
  Y  Y5  1  0.08557429  0.15927573  0.60387315  1
  Y  Y6  1  0.58557429  0.89612685  0.65927573  1
  Y  Y7  1  0.08557429  0.84072427  0.39612685  1
  Y  Y8  1  0.91442571  0.39612685  0.15927573  1
  Y  Y9  1  0.58557429  0.10387315  0.34072427  1
  Pd  Pd10  1  0.58587061  0.80271811  0.35945767  1
  Pd  Pd11  1  0.58587061  0.19728189  0.64054233  1
  Pd  Pd12  1  0.08587061  0.85945767  0.69728189  1
  Pd  Pd13  1  0.91412939  0.30271811  0.85945767  1
  Pd  Pd14  1  0.91412939  0.69728189  0.14054233  1
  Pd  Pd15  1  0.41412939  0.35945767  0.19728189  1
  Pd  Pd16  1  0.41412939  0.64054233  0.80271811  1
  Pd  Pd17  1  0.08587061  0.14054233  0.30271811  1
