# generated using pymatgen
data_Pm3Nd3MgSe8
_symmetry_space_group_name_H-M   'P 1'
_cell_length_a   8.36764572
_cell_length_b   8.36763216
_cell_length_c   8.38481194
_cell_angle_alpha   119.93281055
_cell_angle_beta   89.99985052
_cell_angle_gamma   120.00098106
_symmetry_Int_Tables_number   1
_chemical_formula_structural   Pm3Nd3MgSe8
_chemical_formula_sum   'Pm3 Nd3 Mg1 Se8'
_cell_volume   415.54555442
_cell_formula_units_Z   1
loop_
 _symmetry_equiv_pos_site_id
 _symmetry_equiv_pos_as_xyz
  1  'x, y, z'
loop_
 _atom_site_type_symbol
 _atom_site_label
 _atom_site_symmetry_multiplicity
 _atom_site_fract_x
 _atom_site_fract_y
 _atom_site_fract_z
 _atom_site_occupancy
  Pm  Pm0  1  0.50000000  0.00000000  0.50000000  1
  Pm  Pm1  1  0.50000000  0.50000000  0.50000000  1
  Pm  Pm2  1  0.00000000  0.50000000  0.50000000  1
  Nd  Nd3  1  0.00000000  0.00000000  0.00000000  1
  Nd  Nd4  1  0.00000000  0.50000000  0.00000000  1
  Nd  Nd5  1  0.50000000  0.50000000  0.00000000  1
  Mg  Mg6  1  0.00000000  0.00000000  0.50000000  1
  Se  Se7  1  0.25093717  0.50187452  0.25280039  1
  Se  Se8  1  0.74906283  0.49812548  0.74719961  1
  Se  Se9  1  0.76118528  0.52237075  0.26293284  1
  Se  Se10  1  0.23881472  0.47762925  0.73706716  1
  Se  Se11  1  0.76117765  0.00174730  0.26291950  1
  Se  Se12  1  0.23882235  0.99825270  0.73708050  1
  Se  Se13  1  0.24057132  0.00174783  0.26291838  1
  Se  Se14  1  0.75942868  0.99825217  0.73708162  1
