# generated using pymatgen
data_NdTm2In
_symmetry_space_group_name_H-M   'P 1'
_cell_length_a   3.59264912
_cell_length_b   3.59264912
_cell_length_c   9.10840605
_cell_angle_alpha   90.00000000
_cell_angle_beta   90.00000000
_cell_angle_gamma   90.00000000
_symmetry_Int_Tables_number   1
_chemical_formula_structural   NdTm2In
_chemical_formula_sum   'Nd1 Tm2 In1'
_cell_volume   117.56336003
_cell_formula_units_Z   1
loop_
 _symmetry_equiv_pos_site_id
 _symmetry_equiv_pos_as_xyz
  1  'x, y, z'
loop_
 _atom_site_type_symbol
 _atom_site_label
 _atom_site_symmetry_multiplicity
 _atom_site_fract_x
 _atom_site_fract_y
 _atom_site_fract_z
 _atom_site_occupancy
  Tm  Tm0  1  0.00000000  0.00000000  0.77788039  1
  Tm  Tm1  1  0.00000000  0.00000000  0.22211961  1
  Nd  Nd2  1  0.50000000  0.50000000  0.50000000  1
  In  In3  1  0.50000000  0.50000000  0.00000000  1
