# generated using pymatgen
data_NpCuS2
_symmetry_space_group_name_H-M   'P 1'
_cell_length_a   4.14723977
_cell_length_b   4.14723978
_cell_length_c   7.42796957
_cell_angle_alpha   73.78969856
_cell_angle_beta   73.78969855
_cell_angle_gamma   59.99999997
_symmetry_Int_Tables_number   1
_chemical_formula_structural   NpCuS2
_chemical_formula_sum   'Np1 Cu1 S2'
_cell_volume   104.73573478
_cell_formula_units_Z   1
loop_
 _symmetry_equiv_pos_site_id
 _symmetry_equiv_pos_as_xyz
  1  'x, y, z'
loop_
 _atom_site_type_symbol
 _atom_site_label
 _atom_site_symmetry_multiplicity
 _atom_site_fract_x
 _atom_site_fract_y
 _atom_site_fract_z
 _atom_site_occupancy
  Np  Np0  1  0.50000000  0.50000000  0.50000000  1
  S  S1  1  0.10110149  0.10110149  0.69669653  1
  S  S2  1  0.89889851  0.89889851  0.30330347  1
  Cu  Cu3  1  0.00000000  0.00000000  0.00000000  1
