# generated using pymatgen
data_Er12TmCo6
_symmetry_space_group_name_H-M   'P 1'
_cell_length_a   8.36939242
_cell_length_b   8.36939203
_cell_length_c   8.36939176
_cell_angle_alpha   109.47121996
_cell_angle_beta   109.47121900
_cell_angle_gamma   109.47121989
_symmetry_Int_Tables_number   1
_chemical_formula_structural   Er12TmCo6
_chemical_formula_sum   'Er12 Tm1 Co6'
_cell_volume   451.29431770
_cell_formula_units_Z   1
loop_
 _symmetry_equiv_pos_site_id
 _symmetry_equiv_pos_as_xyz
  1  'x, y, z'
loop_
 _atom_site_type_symbol
 _atom_site_label
 _atom_site_symmetry_multiplicity
 _atom_site_fract_x
 _atom_site_fract_y
 _atom_site_fract_z
 _atom_site_occupancy
  Er  Er0  1  0.30804847  0.11434260  0.80629412  1
  Er  Er1  1  0.30804847  0.50175435  0.19370588  1
  Er  Er2  1  0.69195153  0.49824565  0.80629412  1
  Er  Er3  1  0.69195153  0.88565740  0.19370588  1
  Er  Er4  1  0.11434260  0.80629412  0.30804847  1
  Er  Er5  1  0.50175435  0.19370588  0.30804847  1
  Er  Er6  1  0.49824565  0.80629412  0.69195153  1
  Er  Er7  1  0.88565740  0.19370588  0.69195153  1
  Er  Er8  1  0.80629412  0.30804847  0.11434260  1
  Er  Er9  1  0.19370588  0.30804847  0.50175435  1
  Er  Er10  1  0.80629412  0.69195153  0.49824565  1
  Er  Er11  1  0.19370588  0.69195153  0.88565740  1
  Tm  Tm12  1  0.00000000  0.00000000  0.00000000  1
  Co  Co13  1  0.38587186  0.50000000  0.88587186  1
  Co  Co14  1  0.61412814  0.50000000  0.11412814  1
  Co  Co15  1  0.50000000  0.88587186  0.38587186  1
  Co  Co16  1  0.50000000  0.11412814  0.61412814  1
  Co  Co17  1  0.88587186  0.38587186  0.50000000  1
  Co  Co18  1  0.11412814  0.61412814  0.50000000  1
