# generated using pymatgen
data_La2Ge3PdRh4
_symmetry_space_group_name_H-M   'P 1'
_cell_length_a   4.21483908
_cell_length_b   4.21483908
_cell_length_c   10.69319986
_cell_angle_alpha   90.00000000
_cell_angle_beta   90.00000000
_cell_angle_gamma   90.00000000
_symmetry_Int_Tables_number   1
_chemical_formula_structural   La2Ge3PdRh4
_chemical_formula_sum   'La2 Ge3 Pd1 Rh4'
_cell_volume   189.96328904
_cell_formula_units_Z   1
loop_
 _symmetry_equiv_pos_site_id
 _symmetry_equiv_pos_as_xyz
  1  'x, y, z'
loop_
 _atom_site_type_symbol
 _atom_site_label
 _atom_site_symmetry_multiplicity
 _atom_site_fract_x
 _atom_site_fract_y
 _atom_site_fract_z
 _atom_site_occupancy
  La  La0  1  0.50000000  0.00000000  0.25864308  1
  La  La1  1  0.00000000  0.50000000  0.74135692  1
  Ge  Ge2  1  0.00000000  0.00000000  0.50000000  1
  Ge  Ge3  1  0.50000000  0.00000000  0.87764803  1
  Ge  Ge4  1  0.00000000  0.50000000  0.12235197  1
  Pd  Pd5  1  0.50000000  0.50000000  0.50000000  1
  Rh  Rh6  1  0.50000000  0.50000000  0.00000000  1
  Rh  Rh7  1  0.00000000  0.00000000  0.00000000  1
  Rh  Rh8  1  0.50000000  0.00000000  0.64948388  1
  Rh  Rh9  1  0.00000000  0.50000000  0.35051612  1
