# generated using pymatgen
data_HgTe2Au
_symmetry_space_group_name_H-M   'P 1'
_cell_length_a   4.45499494
_cell_length_b   4.45499494
_cell_length_c   7.30038944
_cell_angle_alpha   90.00000000
_cell_angle_beta   90.00000000
_cell_angle_gamma   120.00000001
_symmetry_Int_Tables_number   1
_chemical_formula_structural   HgTe2Au
_chemical_formula_sum   'Hg1 Te2 Au1'
_cell_volume   125.47901184
_cell_formula_units_Z   1
loop_
 _symmetry_equiv_pos_site_id
 _symmetry_equiv_pos_as_xyz
  1  'x, y, z'
loop_
 _atom_site_type_symbol
 _atom_site_label
 _atom_site_symmetry_multiplicity
 _atom_site_fract_x
 _atom_site_fract_y
 _atom_site_fract_z
 _atom_site_occupancy
  Te  Te0  1  0.33333333  0.66666667  0.79138766  1
  Te  Te1  1  0.66666667  0.33333333  0.28189685  1
  Au  Au2  1  0.33333333  0.66666667  0.42260528  1
  Hg  Hg3  1  0.00000000  0.00000000  0.95910021  1
