# generated using pymatgen
data_BaSrIn2Ir
_symmetry_space_group_name_H-M   'P 1'
_cell_length_a   5.32333599
_cell_length_b   5.32333599
_cell_length_c   5.67272031
_cell_angle_alpha   90.00000000
_cell_angle_beta   90.00000000
_cell_angle_gamma   90.00000000
_symmetry_Int_Tables_number   1
_chemical_formula_structural   BaSrIn2Ir
_chemical_formula_sum   'Ba1 Sr1 In2 Ir1'
_cell_volume   160.75301526
_cell_formula_units_Z   1
loop_
 _symmetry_equiv_pos_site_id
 _symmetry_equiv_pos_as_xyz
  1  'x, y, z'
loop_
 _atom_site_type_symbol
 _atom_site_label
 _atom_site_symmetry_multiplicity
 _atom_site_fract_x
 _atom_site_fract_y
 _atom_site_fract_z
 _atom_site_occupancy
  Sr  Sr0  1  0.00000000  0.00000000  0.50000000  1
  Ir  Ir1  1  0.00000000  0.00000000  0.00000000  1
  Ba  Ba2  1  0.50000000  0.50000000  0.50000000  1
  In  In3  1  0.00000000  0.50000000  0.00000000  1
  In  In4  1  0.50000000  0.00000000  0.00000000  1
