# generated using pymatgen
data_CsPb2F5
_symmetry_space_group_name_H-M   'P 1'
_cell_length_a   4.80395542
_cell_length_b   4.80395589
_cell_length_c   8.03829278
_cell_angle_alpha   107.38653766
_cell_angle_beta   107.38653473
_cell_angle_gamma   89.99998641
_symmetry_Int_Tables_number   1
_chemical_formula_structural   CsPb2F5
_chemical_formula_sum   'Cs1 Pb2 F5'
_cell_volume   168.12943159
_cell_formula_units_Z   1
loop_
 _symmetry_equiv_pos_site_id
 _symmetry_equiv_pos_as_xyz
  1  'x, y, z'
loop_
 _atom_site_type_symbol
 _atom_site_label
 _atom_site_symmetry_multiplicity
 _atom_site_fract_x
 _atom_site_fract_y
 _atom_site_fract_z
 _atom_site_occupancy
  Cs  Cs0  1  0.50000000  0.50000000  0.00000000  1
  Pb  Pb1  1  0.16110237  0.16110237  0.32220474  1
  Pb  Pb2  1  0.83889763  0.83889763  0.67779526  1
  F  F3  1  0.13792474  0.63792474  0.27584949  1
  F  F4  1  0.63792474  0.13792474  0.27584949  1
  F  F5  1  0.36207526  0.86207526  0.72415051  1
  F  F6  1  0.86207526  0.36207526  0.72415051  1
  F  F7  1  0.00000000  0.00000000  0.00000000  1
