# generated using pymatgen
data_TaTe
_symmetry_space_group_name_H-M   'P 1'
_cell_length_a   5.78330854
_cell_length_b   10.87841891
_cell_length_c   15.00000000
_cell_angle_alpha   90.00000000
_cell_angle_beta   90.00000000
_cell_angle_gamma   90.00000000
_symmetry_Int_Tables_number   1
_chemical_formula_structural   TaTe
_chemical_formula_sum   'Ta4 Te4'
_cell_volume   943.69879476
_cell_formula_units_Z   4
loop_
 _symmetry_equiv_pos_site_id
 _symmetry_equiv_pos_as_xyz
  1  'x, y, z'
loop_
 _atom_site_type_symbol
 _atom_site_label
 _atom_site_symmetry_multiplicity
 _atom_site_fract_x
 _atom_site_fract_y
 _atom_site_fract_z
 _atom_site_occupancy
  Te  Te0  1  0.00000000  0.10582855  0.50000000  1
  Te  Te1  1  0.50000000  0.10582856  0.50000000  1
  Te  Te2  1  0.50000000  0.60582856  0.50000000  1
  Te  Te3  1  0.00000000  0.60582855  0.50000000  1
  Ta  Ta4  1  0.00000000  0.35581144  0.50000000  1
  Ta  Ta5  1  0.50000000  0.35581143  0.50000000  1
  Ta  Ta6  1  0.50000000  0.85581145  0.50000000  1
  Ta  Ta7  1  0.00000000  0.85581145  0.50000000  1
