# generated using pymatgen
data_Na3Ga9Pd2
_symmetry_space_group_name_H-M   'P 1'
_cell_length_a   4.32741513
_cell_length_b   8.30439493
_cell_length_c   8.30439493
_cell_angle_alpha   71.73371791
_cell_angle_beta   74.89731846
_cell_angle_gamma   74.89731845
_symmetry_Int_Tables_number   1
_chemical_formula_structural   Na3Ga9Pd2
_chemical_formula_sum   'Na3 Ga9 Pd2'
_cell_volume   268.34654978
_cell_formula_units_Z   1
loop_
 _symmetry_equiv_pos_site_id
 _symmetry_equiv_pos_as_xyz
  1  'x, y, z'
loop_
 _atom_site_type_symbol
 _atom_site_label
 _atom_site_symmetry_multiplicity
 _atom_site_fract_x
 _atom_site_fract_y
 _atom_site_fract_z
 _atom_site_occupancy
  Na  Na0  1  0.00000000  0.00000000  0.00000000  1
  Na  Na1  1  0.68294952  0.31705048  0.31705048  1
  Na  Na2  1  0.31705048  0.68294952  0.68294952  1
  Ga  Ga3  1  0.00000000  0.50000000  0.50000000  1
  Ga  Ga4  1  0.67617726  0.96276797  0.68487651  1
  Ga  Ga5  1  0.32382274  0.03723203  0.31512349  1
  Ga  Ga6  1  0.67617726  0.68487651  0.96276797  1
  Ga  Ga7  1  0.32382274  0.31512349  0.03723203  1
  Ga  Ga8  1  0.87734807  0.84099563  0.40430824  1
  Ga  Ga9  1  0.12265193  0.15900437  0.59569176  1
  Ga  Ga10  1  0.87734807  0.40430824  0.84099563  1
  Ga  Ga11  1  0.12265193  0.59569176  0.15900437  1
  Pd  Pd12  1  0.50000000  0.27387326  0.72612674  1
  Pd  Pd13  1  0.50000000  0.72612674  0.27387326  1
