# generated using pymatgen
data_Pm2SmGa2
_symmetry_space_group_name_H-M   'P 1'
_cell_length_a   4.51475570
_cell_length_b   7.77702302
_cell_length_c   7.77702302
_cell_angle_alpha   90.00000000
_cell_angle_beta   90.00000000
_cell_angle_gamma   90.00000000
_symmetry_Int_Tables_number   1
_chemical_formula_structural   Pm2SmGa2
_chemical_formula_sum   'Pm4 Sm2 Ga4'
_cell_volume   273.06184727
_cell_formula_units_Z   2
loop_
 _symmetry_equiv_pos_site_id
 _symmetry_equiv_pos_as_xyz
  1  'x, y, z'
loop_
 _atom_site_type_symbol
 _atom_site_label
 _atom_site_symmetry_multiplicity
 _atom_site_fract_x
 _atom_site_fract_y
 _atom_site_fract_z
 _atom_site_occupancy
  Pm  Pm0  1  0.50000000  0.17428117  0.67428117  1
  Pm  Pm1  1  0.50000000  0.67428117  0.82571883  1
  Pm  Pm2  1  0.50000000  0.82571883  0.32571883  1
  Pm  Pm3  1  0.50000000  0.32571883  0.17428117  1
  Sm  Sm4  1  0.00000000  0.00000000  0.00000000  1
  Sm  Sm5  1  0.00000000  0.50000000  0.50000000  1
  Ga  Ga6  1  0.00000000  0.38198152  0.88198152  1
  Ga  Ga7  1  0.00000000  0.88198152  0.61801848  1
  Ga  Ga8  1  0.00000000  0.61801848  0.11801848  1
  Ga  Ga9  1  0.00000000  0.11801848  0.38198152  1
