# generated using pymatgen
data_K3Tb3SbSe8
_symmetry_space_group_name_H-M   'P 1'
_cell_length_a   8.35059812
_cell_length_b   8.35074919
_cell_length_c   9.19297000
_cell_angle_alpha   117.02313932
_cell_angle_beta   89.98776584
_cell_angle_gamma   120.00734277
_symmetry_Int_Tables_number   1
_chemical_formula_structural   K3Tb3SbSe8
_chemical_formula_sum   'K3 Tb3 Sb1 Se8'
_cell_volume   472.62787892
_cell_formula_units_Z   1
loop_
 _symmetry_equiv_pos_site_id
 _symmetry_equiv_pos_as_xyz
  1  'x, y, z'
loop_
 _atom_site_type_symbol
 _atom_site_label
 _atom_site_symmetry_multiplicity
 _atom_site_fract_x
 _atom_site_fract_y
 _atom_site_fract_z
 _atom_site_occupancy
  K  K0  1  0.00000000  0.00000000  0.00000000  1
  K  K1  1  -0.00000000  0.50000000  0.00000000  1
  K  K2  1  0.50000000  0.50000000  0.00000000  1
  Tb  Tb3  1  0.50000000  0.00000000  0.50000000  1
  Tb  Tb4  1  0.50000000  0.50000000  0.50000000  1
  Tb  Tb5  1  -0.00000000  0.50000000  0.50000000  1
  Sb  Sb6  1  -0.00000000  -0.00000000  0.50000000  1
  Se  Se7  1  0.26504075  0.53008090  0.29522986  1
  Se  Se8  1  0.73495925  0.46991910  0.70477014  1
  Se  Se9  1  0.77076066  0.54156983  0.29982970  1
  Se  Se10  1  0.22923934  0.45843017  0.70017030  1
  Se  Se11  1  0.77073600  0.02891088  0.29992688  1
  Se  Se12  1  0.22926400  0.97108912  0.70007312  1
  Se  Se13  1  0.25816695  0.02893803  0.29994465  1
  Se  Se14  1  0.74183305  0.97106197  0.70005535  1
