# generated using pymatgen
data_InNiHgPb2
_symmetry_space_group_name_H-M   'P 1'
_cell_length_a   5.19602713
_cell_length_b   5.19602713
_cell_length_c   5.05160309
_cell_angle_alpha   90.00000000
_cell_angle_beta   90.00000000
_cell_angle_gamma   90.00000000
_symmetry_Int_Tables_number   1
_chemical_formula_structural   InNiHgPb2
_chemical_formula_sum   'In1 Ni1 Hg1 Pb2'
_cell_volume   136.38670592
_cell_formula_units_Z   1
loop_
 _symmetry_equiv_pos_site_id
 _symmetry_equiv_pos_as_xyz
  1  'x, y, z'
loop_
 _atom_site_type_symbol
 _atom_site_label
 _atom_site_symmetry_multiplicity
 _atom_site_fract_x
 _atom_site_fract_y
 _atom_site_fract_z
 _atom_site_occupancy
  Pb  Pb0  1  0.00000000  0.50000000  0.00000000  1
  Pb  Pb1  1  0.50000000  0.00000000  0.00000000  1
  Ni  Ni2  1  0.00000000  0.00000000  0.00000000  1
  Hg  Hg3  1  0.50000000  0.50000000  0.50000000  1
  In  In4  1  0.00000000  0.00000000  0.50000000  1
