# generated using pymatgen
data_MnV2IrC
_symmetry_space_group_name_H-M   'P 1'
_cell_length_a   3.95134368
_cell_length_b   3.95134368
_cell_length_c   3.79224691
_cell_angle_alpha   90.00000000
_cell_angle_beta   90.00000000
_cell_angle_gamma   90.00000000
_symmetry_Int_Tables_number   1
_chemical_formula_structural   MnV2IrC
_chemical_formula_sum   'Mn1 V2 Ir1 C1'
_cell_volume   59.20879423
_cell_formula_units_Z   1
loop_
 _symmetry_equiv_pos_site_id
 _symmetry_equiv_pos_as_xyz
  1  'x, y, z'
loop_
 _atom_site_type_symbol
 _atom_site_label
 _atom_site_symmetry_multiplicity
 _atom_site_fract_x
 _atom_site_fract_y
 _atom_site_fract_z
 _atom_site_occupancy
  C  C0  1  0.00000000  0.00000000  0.00000000  1
  Ir  Ir1  1  0.50000000  0.50000000  0.50000000  1
  Mn  Mn2  1  0.00000000  0.00000000  0.50000000  1
  V  V3  1  0.00000000  0.50000000  0.00000000  1
  V  V4  1  0.50000000  0.00000000  0.00000000  1
