# generated using pymatgen
data_SbIrOs2
_symmetry_space_group_name_H-M   'P 1'
_cell_length_a   8.75125706
_cell_length_b   8.75125705
_cell_length_c   8.75125705
_cell_angle_alpha   19.31751403
_cell_angle_beta   19.31751403
_cell_angle_gamma   19.31751397
_symmetry_Int_Tables_number   1
_chemical_formula_structural   SbIrOs2
_chemical_formula_sum   'Sb1 Ir1 Os2'
_cell_volume   64.11713750
_cell_formula_units_Z   1
loop_
 _symmetry_equiv_pos_site_id
 _symmetry_equiv_pos_as_xyz
  1  'x, y, z'
loop_
 _atom_site_type_symbol
 _atom_site_label
 _atom_site_symmetry_multiplicity
 _atom_site_fract_x
 _atom_site_fract_y
 _atom_site_fract_z
 _atom_site_occupancy
  Ir  Ir0  1  0.75000000  0.75000000  0.75000000  1
  Os  Os1  1  0.00010808  0.00010808  0.00010808  1
  Os  Os2  1  0.49989192  0.49989192  0.49989192  1
  Sb  Sb3  1  0.25000000  0.25000000  0.25000000  1
