# generated using pymatgen
data_CeMg2AlAu4
_symmetry_space_group_name_H-M   'P 1'
_cell_length_a   4.56525587
_cell_length_b   4.56525587
_cell_length_c   9.28609912
_cell_angle_alpha   75.77021695
_cell_angle_beta   75.77021696
_cell_angle_gamma   59.99999996
_symmetry_Int_Tables_number   1
_chemical_formula_structural   CeMg2AlAu4
_chemical_formula_sum   'Ce1 Mg2 Al1 Au4'
_cell_volume   160.71443555
_cell_formula_units_Z   1
loop_
 _symmetry_equiv_pos_site_id
 _symmetry_equiv_pos_as_xyz
  1  'x, y, z'
loop_
 _atom_site_type_symbol
 _atom_site_label
 _atom_site_symmetry_multiplicity
 _atom_site_fract_x
 _atom_site_fract_y
 _atom_site_fract_z
 _atom_site_occupancy
  Ce  Ce0  1  0.00000000  0.00000000  0.00000000  1
  Mg  Mg1  1  0.75987147  0.75987147  0.72038558  1
  Mg  Mg2  1  0.24012853  0.24012853  0.27961442  1
  Al  Al3  1  0.50000000  0.50000000  0.50000000  1
  Au  Au4  1  0.39636400  0.39636400  0.81090800  1
  Au  Au5  1  0.86766555  0.86766555  0.39700334  1
  Au  Au6  1  0.13233445  0.13233445  0.60299666  1
  Au  Au7  1  0.60363600  0.60363600  0.18909200  1
