# generated using pymatgen
data_CuSbS2
_symmetry_space_group_name_H-M   'P 1'
_cell_length_a   5.94451301
_cell_length_b   5.91114771
_cell_length_c   7.54794401
_cell_angle_alpha   121.34055469
_cell_angle_beta   118.33029040
_cell_angle_gamma   79.85965975
_symmetry_Int_Tables_number   1
_chemical_formula_structural   CuSbS2
_chemical_formula_sum   'Cu2 Sb2 S4'
_cell_volume   198.51015032
_cell_formula_units_Z   2
loop_
 _symmetry_equiv_pos_site_id
 _symmetry_equiv_pos_as_xyz
  1  'x, y, z'
loop_
 _atom_site_type_symbol
 _atom_site_label
 _atom_site_symmetry_multiplicity
 _atom_site_fract_x
 _atom_site_fract_y
 _atom_site_fract_z
 _atom_site_occupancy
  Sb  Sb0  1  0.99694377  0.97073210  0.00774676  1
  Sb  Sb1  1  0.75305623  0.27926790  0.49225324  1
  S  S2  1  0.18436654  0.22419808  0.49903886  1
  S  S3  1  0.74345009  0.72651614  0.52984442  1
  S  S4  1  0.56563346  0.02580192  0.00096114  1
  S  S5  1  0.00654991  0.52348386  0.97015558  1
  Cu  Cu6  1  0.32947699  0.31492157  0.90625576  1
  Cu  Cu7  1  0.42052301  0.93507843  0.59374424  1
