# generated using pymatgen
data_Mn2BiS4
_symmetry_space_group_name_H-M   'P 1'
_cell_length_a   7.42900952
_cell_length_b   7.42874029
_cell_length_c   8.54637144
_cell_angle_alpha   125.26135312
_cell_angle_beta   125.26069376
_cell_angle_gamma   79.69923132
_symmetry_Int_Tables_number   1
_chemical_formula_structural   Mn2BiS4
_chemical_formula_sum   'Mn4 Bi2 S8'
_cell_volume   305.90971676
_cell_formula_units_Z   2
loop_
 _symmetry_equiv_pos_site_id
 _symmetry_equiv_pos_as_xyz
  1  'x, y, z'
loop_
 _atom_site_type_symbol
 _atom_site_label
 _atom_site_symmetry_multiplicity
 _atom_site_fract_x
 _atom_site_fract_y
 _atom_site_fract_z
 _atom_site_occupancy
  Mn  Mn0  1  0.62544420  0.37544552  0.75052702  1
  Mn  Mn1  1  0.62498124  0.87510706  0.25006922  1
  Mn  Mn2  1  0.62452505  0.37454597  0.24947588  1
  Mn  Mn3  1  0.12498835  0.37492556  0.74992825  1
  Bi  Bi4  1  0.31400733  0.68595874  0.49998729  1
  Bi  Bi5  1  0.93608257  0.06395930  0.00001180  1
  S  S6  1  0.87195961  0.12699149  0.31676942  1
  S  S7  1  0.37794208  0.62298380  0.18309815  1
  S  S8  1  0.81566225  0.61367142  0.71433329  1
  S  S9  1  0.87300203  0.12805617  0.68322056  1
  S  S10  1  0.38640443  0.18425245  0.28565900  1
  S  S11  1  0.43427916  0.13627998  0.78565876  1
  S  S12  1  0.37702909  0.62200963  0.81688150  1
  S  S13  1  0.86368861  0.56581090  0.21437585  1
