# generated using pymatgen
data_YZn2Ag5
_symmetry_space_group_name_H-M   'P 1'
_cell_length_a   3.54310307
_cell_length_b   6.90175861
_cell_length_c   6.90175861
_cell_angle_alpha   72.98209143
_cell_angle_beta   75.12677421
_cell_angle_gamma   75.12677420
_symmetry_Int_Tables_number   1
_chemical_formula_structural   YZn2Ag5
_chemical_formula_sum   'Y1 Zn2 Ag5'
_cell_volume   152.93666137
_cell_formula_units_Z   1
loop_
 _symmetry_equiv_pos_site_id
 _symmetry_equiv_pos_as_xyz
  1  'x, y, z'
loop_
 _atom_site_type_symbol
 _atom_site_label
 _atom_site_symmetry_multiplicity
 _atom_site_fract_x
 _atom_site_fract_y
 _atom_site_fract_z
 _atom_site_occupancy
  Y  Y0  1  0.00000000  0.00000000  0.00000000  1
  Zn  Zn1  1  0.74186207  0.75813793  0.75813793  1
  Zn  Zn2  1  0.25813793  0.24186207  0.24186207  1
  Ag  Ag3  1  0.00000000  0.50000000  0.50000000  1
  Ag  Ag4  1  0.63802453  0.57289868  0.15105227  1
  Ag  Ag5  1  0.36197547  0.42710132  0.84894773  1
  Ag  Ag6  1  0.36197547  0.84894773  0.42710132  1
  Ag  Ag7  1  0.63802453  0.15105227  0.57289868  1
