# generated using pymatgen
data_Ti2BeIn2
_symmetry_space_group_name_H-M   'P 1'
_cell_length_a   6.46960326
_cell_length_b   6.46960326
_cell_length_c   4.51007673
_cell_angle_alpha   90.00000000
_cell_angle_beta   90.00000000
_cell_angle_gamma   90.00000000
_symmetry_Int_Tables_number   1
_chemical_formula_structural   Ti2BeIn2
_chemical_formula_sum   'Ti4 Be2 In4'
_cell_volume   188.77271779
_cell_formula_units_Z   2
loop_
 _symmetry_equiv_pos_site_id
 _symmetry_equiv_pos_as_xyz
  1  'x, y, z'
loop_
 _atom_site_type_symbol
 _atom_site_label
 _atom_site_symmetry_multiplicity
 _atom_site_fract_x
 _atom_site_fract_y
 _atom_site_fract_z
 _atom_site_occupancy
  Be  Be0  1  0.00000000  0.00000000  0.00000000  1
  Be  Be1  1  0.50000000  0.50000000  0.00000000  1
  Ti  Ti2  1  0.35083772  0.85083772  0.00000000  1
  Ti  Ti3  1  0.85083772  0.64916228  0.00000000  1
  Ti  Ti4  1  0.64916228  0.14916228  0.00000000  1
  Ti  Ti5  1  0.14916228  0.35083772  0.00000000  1
  In  In6  1  0.16413777  0.66413777  0.50000000  1
  In  In7  1  0.66413777  0.83586223  0.50000000  1
  In  In8  1  0.83586223  0.33586223  0.50000000  1
  In  In9  1  0.33586223  0.16413777  0.50000000  1
