# generated using pymatgen
data_Hf4Cu2S
_symmetry_space_group_name_H-M   'P 1'
_cell_length_a   3.58258167
_cell_length_b   5.82889582
_cell_length_c   6.78788060
_cell_angle_alpha   75.89375426
_cell_angle_beta   74.69867435
_cell_angle_gamma   72.10267582
_symmetry_Int_Tables_number   1
_chemical_formula_structural   Hf4Cu2S
_chemical_formula_sum   'Hf4 Cu2 S1'
_cell_volume   128.04858717
_cell_formula_units_Z   1
loop_
 _symmetry_equiv_pos_site_id
 _symmetry_equiv_pos_as_xyz
  1  'x, y, z'
loop_
 _atom_site_type_symbol
 _atom_site_label
 _atom_site_symmetry_multiplicity
 _atom_site_fract_x
 _atom_site_fract_y
 _atom_site_fract_z
 _atom_site_occupancy
  Hf  Hf0  1  0.09294797  0.19580106  0.61830300  1
  Hf  Hf1  1  0.90705203  0.80419894  0.38169700  1
  Hf  Hf2  1  0.31915893  0.26997695  0.09170419  1
  Hf  Hf3  1  0.68084107  0.73002305  0.90829581  1
  Cu  Cu4  1  0.38125016  0.56868986  0.66881082  1
  Cu  Cu5  1  0.61874984  0.43131014  0.33119018  1
  S  S6  1  0.00000000  0.00000000  0.00000000  1
