# generated using pymatgen
data_Rb3Nd3InTe8
_symmetry_space_group_name_H-M   'P 1'
_cell_length_a   9.03100741
_cell_length_b   9.04474262
_cell_length_c   10.30449652
_cell_angle_alpha   116.09740682
_cell_angle_beta   90.00000000
_cell_angle_gamma   119.94977836
_symmetry_Int_Tables_number   1
_chemical_formula_structural   Rb3Nd3InTe8
_chemical_formula_sum   'Rb3 Nd3 In1 Te8'
_cell_volume   628.32371072
_cell_formula_units_Z   1
loop_
 _symmetry_equiv_pos_site_id
 _symmetry_equiv_pos_as_xyz
  1  'x, y, z'
loop_
 _atom_site_type_symbol
 _atom_site_label
 _atom_site_symmetry_multiplicity
 _atom_site_fract_x
 _atom_site_fract_y
 _atom_site_fract_z
 _atom_site_occupancy
  Rb  Rb0  1  0.00000000  0.00000000  0.00000000  1
  Rb  Rb1  1  0.00000000  0.50000000  0.00000000  1
  Rb  Rb2  1  0.50000000  0.50000000  0.00000000  1
  Nd  Nd3  1  0.50000000  -0.00000000  0.50000000  1
  Nd  Nd4  1  0.50000000  0.50000000  0.50000000  1
  Nd  Nd5  1  0.00000000  0.50000000  0.50000000  1
  In  In6  1  -0.00000000  -0.00000000  0.50000000  1
  Te  Te7  1  0.26452205  0.52904410  0.29362443  1
  Te  Te8  1  0.73547795  0.47095590  0.70637557  1
  Te  Te9  1  0.77260571  0.54521241  0.30151078  1
  Te  Te10  1  0.22739429  0.45478759  0.69848922  1
  Te  Te11  1  0.77212360  0.02908402  0.30114956  1
  Te  Te12  1  0.22787640  0.97091598  0.69885044  1
  Te  Te13  1  0.25696042  0.02908402  0.30114956  1
  Te  Te14  1  0.74303958  0.97091598  0.69885044  1
