# generated using pymatgen
data_Nd(Np3Se4)2
_symmetry_space_group_name_H-M   'P 1'
_cell_length_a   8.19963724
_cell_length_b   8.19963739
_cell_length_c   8.19963754
_cell_angle_alpha   60.00000342
_cell_angle_beta   60.00000281
_cell_angle_gamma   60.00000479
_symmetry_Int_Tables_number   1
_chemical_formula_structural   Nd(Np3Se4)2
_chemical_formula_sum   'Nd1 Np6 Se8'
_cell_volume   389.82436442
_cell_formula_units_Z   1
loop_
 _symmetry_equiv_pos_site_id
 _symmetry_equiv_pos_as_xyz
  1  'x, y, z'
loop_
 _atom_site_type_symbol
 _atom_site_label
 _atom_site_symmetry_multiplicity
 _atom_site_fract_x
 _atom_site_fract_y
 _atom_site_fract_z
 _atom_site_occupancy
  Nd  Nd0  1  0.00000000  0.00000000  0.00000000  1
  Np  Np1  1  0.00000000  0.50000000  0.50000000  1
  Np  Np2  1  0.50000000  0.00000000  -0.00000000  1
  Np  Np3  1  0.50000000  0.50000000  0.00000000  1
  Np  Np4  1  0.00000000  0.00000000  0.50000000  1
  Np  Np5  1  0.00000000  0.50000000  -0.00000000  1
  Np  Np6  1  0.50000000  0.00000000  0.50000000  1
  Se  Se7  1  0.75000000  0.75000000  0.75000000  1
  Se  Se8  1  0.25000000  0.25000000  0.25000000  1
  Se  Se9  1  0.74228524  0.25771476  0.25771476  1
  Se  Se10  1  0.25771476  0.74228524  0.74228524  1
  Se  Se11  1  0.25771476  0.25771476  0.74228524  1
  Se  Se12  1  0.74228524  0.74228524  0.25771476  1
  Se  Se13  1  0.74228524  0.25771476  0.74228524  1
  Se  Se14  1  0.25771476  0.74228524  0.25771476  1
