# generated using pymatgen
data_Nd2ZnCuPt6
_symmetry_space_group_name_H-M   'P 1'
_cell_length_a   6.62896882
_cell_length_b   6.62896886
_cell_length_c   6.62896864
_cell_angle_alpha   60.00000209
_cell_angle_beta   60.00000230
_cell_angle_gamma   90.00000614
_symmetry_Int_Tables_number   1
_chemical_formula_structural   Nd2ZnCuPt6
_chemical_formula_sum   'Nd2 Zn1 Cu1 Pt6'
_cell_volume   205.97899143
_cell_formula_units_Z   1
loop_
 _symmetry_equiv_pos_site_id
 _symmetry_equiv_pos_as_xyz
  1  'x, y, z'
loop_
 _atom_site_type_symbol
 _atom_site_label
 _atom_site_symmetry_multiplicity
 _atom_site_fract_x
 _atom_site_fract_y
 _atom_site_fract_z
 _atom_site_occupancy
  Nd  Nd0  1  0.25000000  0.75000000  0.50000000  1
  Nd  Nd1  1  0.75000000  0.25000000  0.50000000  1
  Zn  Zn2  1  0.50000000  0.50000000  0.00000000  1
  Cu  Cu3  1  0.00000000  0.00000000  0.00000000  1
  Pt  Pt4  1  0.24962623  0.75037371  1.00000000  1
  Pt  Pt5  1  0.75036330  0.75036324  0.99999942  1
  Pt  Pt6  1  0.24963202  0.24963202  0.50073589  1
  Pt  Pt7  1  0.75037377  0.24962629  0.00000000  1
  Pt  Pt8  1  0.24963670  0.24963676  0.00000058  1
  Pt  Pt9  1  0.75036798  0.75036798  0.49926411  1
