# generated using pymatgen
data_Np(Zn2Pd)6
_symmetry_space_group_name_H-M   'P 1'
_cell_length_a   7.15542939
_cell_length_b   7.15542939
_cell_length_c   7.15542939
_cell_angle_alpha   104.80301145
_cell_angle_beta   104.80301147
_cell_angle_gamma   104.80301147
_symmetry_Int_Tables_number   1
_chemical_formula_structural   Np(Zn2Pd)6
_chemical_formula_sum   'Np1 Zn12 Pd6'
_cell_volume   321.64744442
_cell_formula_units_Z   1
loop_
 _symmetry_equiv_pos_site_id
 _symmetry_equiv_pos_as_xyz
  1  'x, y, z'
loop_
 _atom_site_type_symbol
 _atom_site_label
 _atom_site_symmetry_multiplicity
 _atom_site_fract_x
 _atom_site_fract_y
 _atom_site_fract_z
 _atom_site_occupancy
  Np  Np0  1  0.00000000  0.00000000  0.00000000  1
  Zn  Zn1  1  0.88920631  0.11079369  0.50000000  1
  Zn  Zn2  1  0.86811371  0.61214685  0.61214685  1
  Zn  Zn3  1  0.61214685  0.61214685  0.86811371  1
  Zn  Zn4  1  0.38785315  0.13188629  0.38785315  1
  Zn  Zn5  1  0.38785315  0.38785315  0.13188629  1
  Zn  Zn6  1  0.13188629  0.38785315  0.38785315  1
  Zn  Zn7  1  0.11079369  0.50000000  0.88920631  1
  Zn  Zn8  1  0.50000000  0.88920631  0.11079369  1
  Zn  Zn9  1  0.11079369  0.88920631  0.50000000  1
  Zn  Zn10  1  0.88920631  0.50000000  0.11079369  1
  Zn  Zn11  1  0.50000000  0.11079369  0.88920631  1
  Zn  Zn12  1  0.61214685  0.86811371  0.61214685  1
  Pd  Pd13  1  0.70414801  0.28161532  0.28161532  1
  Pd  Pd14  1  0.28161532  0.28161532  0.70414801  1
  Pd  Pd15  1  0.28161532  0.70414801  0.28161532  1
  Pd  Pd16  1  0.71838468  0.71838468  0.29585199  1
  Pd  Pd17  1  0.29585199  0.71838468  0.71838468  1
  Pd  Pd18  1  0.71838468  0.29585199  0.71838468  1
