# generated using pymatgen
data_Na2In2Pb
_symmetry_space_group_name_H-M   'P 1'
_cell_length_a   4.43610586
_cell_length_b   4.43610586
_cell_length_c   8.14067160
_cell_angle_alpha   74.18896306
_cell_angle_beta   74.18896306
_cell_angle_gamma   90.00000000
_symmetry_Int_Tables_number   1
_chemical_formula_structural   Na2In2Pb
_chemical_formula_sum   'Na2 In2 Pb1'
_cell_volume   147.83005519
_cell_formula_units_Z   1
loop_
 _symmetry_equiv_pos_site_id
 _symmetry_equiv_pos_as_xyz
  1  'x, y, z'
loop_
 _atom_site_type_symbol
 _atom_site_label
 _atom_site_symmetry_multiplicity
 _atom_site_fract_x
 _atom_site_fract_y
 _atom_site_fract_z
 _atom_site_occupancy
  Pb  Pb0  1  0.00000000  0.00000000  0.00000000  1
  Na  Na1  1  0.75000000  0.25000000  0.50000000  1
  Na  Na2  1  0.25000000  0.75000000  0.50000000  1
  In  In3  1  0.40469445  0.40469445  0.19061111  1
  In  In4  1  0.59530555  0.59530555  0.80938889  1
