# generated using pymatgen
data_Ba3Ti2PbO8
_symmetry_space_group_name_H-M   'P 1'
_cell_length_a   6.14796165
_cell_length_b   6.14796165
_cell_length_c   7.86843214
_cell_angle_alpha   90.00000000
_cell_angle_beta   90.00000000
_cell_angle_gamma   120.00000004
_symmetry_Int_Tables_number   1
_chemical_formula_structural   Ba3Ti2PbO8
_chemical_formula_sum   'Ba3 Ti2 Pb1 O8'
_cell_volume   257.56161220
_cell_formula_units_Z   1
loop_
 _symmetry_equiv_pos_site_id
 _symmetry_equiv_pos_as_xyz
  1  'x, y, z'
loop_
 _atom_site_type_symbol
 _atom_site_label
 _atom_site_symmetry_multiplicity
 _atom_site_fract_x
 _atom_site_fract_y
 _atom_site_fract_z
 _atom_site_occupancy
  Ba  Ba0  1  0.33333333  0.66666667  0.66551699  1
  Ba  Ba1  1  0.66666667  0.33333333  0.33448301  1
  Ba  Ba2  1  0.00000000  0.00000000  0.00000000  1
  Ti  Ti3  1  0.33333333  0.66666667  0.20136778  1
  Ti  Ti4  1  0.66666667  0.33333333  0.79863222  1
  Pb  Pb5  1  0.00000000  0.00000000  0.50000000  1
  O  O6  1  0.33333333  0.66666667  0.97321245  1
  O  O7  1  0.66666667  0.33333333  0.02678755  1
  O  O8  1  0.17347260  0.82652740  0.28979651  1
  O  O9  1  0.82652740  0.17347260  0.71020349  1
  O  O10  1  0.17347260  0.34694519  0.28979651  1
  O  O11  1  0.82652740  0.65305481  0.71020349  1
  O  O12  1  0.65305481  0.82652740  0.28979651  1
  O  O13  1  0.34694519  0.17347260  0.71020349  1
