# generated using pymatgen
data_SrPrCuN2
_symmetry_space_group_name_H-M   'P 1'
_cell_length_a   5.42918489
_cell_length_b   5.45886248
_cell_length_c   6.87893701
_cell_angle_alpha   90.02827954
_cell_angle_beta   90.00000000
_cell_angle_gamma   90.00000000
_symmetry_Int_Tables_number   1
_chemical_formula_structural   SrPrCuN2
_chemical_formula_sum   'Sr2 Pr2 Cu2 N4'
_cell_volume   203.87222595
_cell_formula_units_Z   2
loop_
 _symmetry_equiv_pos_site_id
 _symmetry_equiv_pos_as_xyz
  1  'x, y, z'
loop_
 _atom_site_type_symbol
 _atom_site_label
 _atom_site_symmetry_multiplicity
 _atom_site_fract_x
 _atom_site_fract_y
 _atom_site_fract_z
 _atom_site_occupancy
  Sr  Sr0  1  0.00033164  0.50000000  0.75000000  1
  Sr  Sr1  1  0.99966836  0.50000000  0.25000000  1
  Pr  Pr2  1  0.49993685  0.00000000  0.25000000  1
  Pr  Pr3  1  0.50006315  -0.00000000  0.75000000  1
  Cu  Cu4  1  0.00000000  0.00000000  0.00000000  1
  Cu  Cu5  1  0.00000000  0.00000000  0.50000000  1
  N  N6  1  0.73931081  0.77812922  0.99997379  1
  N  N7  1  0.73931081  0.22187078  0.50002621  1
  N  N8  1  0.26068819  0.77812922  0.49997379  1
  N  N9  1  0.26068819  0.22187078  0.00002621  1
