# generated using pymatgen
data_ErSnIr
_symmetry_space_group_name_H-M   'P 1'
_cell_length_a   4.25972314
_cell_length_b   7.34124890
_cell_length_c   12.28647862
_cell_angle_alpha   88.62246754
_cell_angle_beta   90.00000000
_cell_angle_gamma   90.00000000
_symmetry_Int_Tables_number   1
_chemical_formula_structural   ErSnIr
_chemical_formula_sum   'Er6 Sn6 Ir6'
_cell_volume   384.10788213
_cell_formula_units_Z   6
loop_
 _symmetry_equiv_pos_site_id
 _symmetry_equiv_pos_as_xyz
  1  'x, y, z'
loop_
 _atom_site_type_symbol
 _atom_site_label
 _atom_site_symmetry_multiplicity
 _atom_site_fract_x
 _atom_site_fract_y
 _atom_site_fract_z
 _atom_site_occupancy
  Er  Er0  1  0.75000000  0.53234138  0.37785633  1
  Er  Er1  1  0.25000000  0.96013897  0.71036237  1
  Er  Er2  1  0.75000000  0.03986103  0.28963763  1
  Er  Er3  1  0.75000000  0.64684887  0.08146190  1
  Er  Er4  1  0.25000000  0.46765862  0.62214367  1
  Er  Er5  1  0.25000000  0.35315113  0.91853810  1
  Sn  Sn6  1  0.25000000  0.99197581  0.08948131  1
  Sn  Sn7  1  0.25000000  0.84586621  0.45363964  1
  Sn  Sn8  1  0.75000000  0.62718827  0.79251044  1
  Sn  Sn9  1  0.75000000  0.15413379  0.54636036  1
  Sn  Sn10  1  0.25000000  0.37281173  0.20748956  1
  Sn  Sn11  1  0.75000000  0.00802419  0.91051869  1
  Ir  Ir12  1  0.25000000  0.75927996  0.91283703  1
  Ir  Ir13  1  0.75000000  0.26427272  0.75475686  1
  Ir  Ir14  1  0.75000000  0.76522591  0.58019831  1
  Ir  Ir15  1  0.75000000  0.24072004  0.08716297  1
  Ir  Ir16  1  0.25000000  0.23477409  0.41980169  1
  Ir  Ir17  1  0.25000000  0.73572728  0.24524314  1
