# generated using pymatgen
data_CeMgC
_symmetry_space_group_name_H-M   'P 1'
_cell_length_a   3.52642584
_cell_length_b   3.52642584
_cell_length_c   11.66597451
_cell_angle_alpha   81.30691591
_cell_angle_beta   81.30691590
_cell_angle_gamma   59.99999998
_symmetry_Int_Tables_number   1
_chemical_formula_structural   CeMgC
_chemical_formula_sum   'Ce2 Mg2 C2'
_cell_volume   123.70988490
_cell_formula_units_Z   2
loop_
 _symmetry_equiv_pos_site_id
 _symmetry_equiv_pos_as_xyz
  1  'x, y, z'
loop_
 _atom_site_type_symbol
 _atom_site_label
 _atom_site_symmetry_multiplicity
 _atom_site_fract_x
 _atom_site_fract_y
 _atom_site_fract_z
 _atom_site_occupancy
  C  C0  1  0.57645311  0.57645311  0.27063968  1
  C  C1  1  0.42354689  0.42354689  0.72936032  1
  Ce  Ce2  1  0.27809464  0.27809464  0.16571507  1
  Ce  Ce3  1  0.72190536  0.72190536  0.83428493  1
  Mg  Mg4  1  0.87306531  0.87306531  0.38080306  1
  Mg  Mg5  1  0.12693469  0.12693469  0.61919694  1
