# generated using pymatgen
data_NpFe(PPd)2
_symmetry_space_group_name_H-M   'P 1'
_cell_length_a   4.01213094
_cell_length_b   6.39292807
_cell_length_c   7.29901155
_cell_angle_alpha   90.00000000
_cell_angle_beta   90.00000000
_cell_angle_gamma   90.00000000
_symmetry_Int_Tables_number   1
_chemical_formula_structural   NpFe(PPd)2
_chemical_formula_sum   'Np2 Fe2 P4 Pd4'
_cell_volume   187.21427788
_cell_formula_units_Z   2
loop_
 _symmetry_equiv_pos_site_id
 _symmetry_equiv_pos_as_xyz
  1  'x, y, z'
loop_
 _atom_site_type_symbol
 _atom_site_label
 _atom_site_symmetry_multiplicity
 _atom_site_fract_x
 _atom_site_fract_y
 _atom_site_fract_z
 _atom_site_occupancy
  Np  Np0  1  0.00000000  0.00530578  0.45781266  1
  Np  Np1  1  0.00000000  0.50530578  0.54218734  1
  Fe  Fe2  1  0.50000000  0.14699603  0.69615207  1
  Fe  Fe3  1  0.50000000  0.64699603  0.30384793  1
  P  P4  1  0.00000000  0.22746302  0.82706107  1
  P  P5  1  0.50000000  0.28647650  0.35353346  1
  P  P6  1  0.00000000  0.72746302  0.17293893  1
  P  P7  1  0.50000000  0.78647650  0.64646654  1
  Pd  Pd8  1  0.50000000  0.02386397  0.11258975  1
  Pd  Pd9  1  0.00000000  0.35549570  0.12489978  1
  Pd  Pd10  1  0.50000000  0.52386397  0.88741025  1
  Pd  Pd11  1  0.00000000  0.85549570  0.87510022  1
