# generated using pymatgen
data_Na5Ce3Ti6Nb2O24
_symmetry_space_group_name_H-M   'P 1'
_cell_length_a   5.54904641
_cell_length_b   5.44812962
_cell_length_c   15.57852444
_cell_angle_alpha   90.00606957
_cell_angle_beta   89.94464011
_cell_angle_gamma   90.23508931
_symmetry_Int_Tables_number   1
_chemical_formula_structural   Na5Ce3Ti6Nb2O24
_chemical_formula_sum   'Na5 Ce3 Ti6 Nb2 O24'
_cell_volume   470.96458234
_cell_formula_units_Z   1
loop_
 _symmetry_equiv_pos_site_id
 _symmetry_equiv_pos_as_xyz
  1  'x, y, z'
loop_
 _atom_site_type_symbol
 _atom_site_label
 _atom_site_symmetry_multiplicity
 _atom_site_fract_x
 _atom_site_fract_y
 _atom_site_fract_z
 _atom_site_occupancy
  Na  Na0  1  0.96716326  0.50238719  0.12473957  1
  Na  Na1  1  0.98462074  0.50091645  0.62549475  1
  Na  Na2  1  0.53580923  0.00668072  0.37353480  1
  Na  Na3  1  0.53145183  0.00522443  0.87638455  1
  Na  Na4  1  0.47870999  0.99709684  0.62689191  1
  Ce  Ce5  1  0.44564248  0.98958840  0.12512280  1
  Ce  Ce6  1  0.05106407  0.49204213  0.37150533  1
  Ce  Ce7  1  0.05133123  0.49125377  0.87776852  1
  Ti  Ti8  1  0.99121430  0.99338373  0.00174067  1
  Ti  Ti9  1  0.99160857  0.99445395  0.24796500  1
  Ti  Ti10  1  0.01239283  0.99754252  0.49702356  1
  Ti  Ti11  1  0.50727307  0.49448662  0.24978267  1
  Ti  Ti12  1  0.50774000  0.50388326  0.75221583  1
  Ti  Ti13  1  0.50741540  0.49377006  0.99994815  1
  Nb  Nb14  1  0.00075110  0.99762257  0.74461502  1
  Nb  Nb15  1  0.51338635  0.50657605  0.50544648  1
  O  O16  1  0.97649807  0.91859579  0.37278209  1
  O  O17  1  0.97773451  0.91800989  0.87859220  1
  O  O18  1  0.21124911  0.71704675  0.23177736  1
  O  O19  1  0.19472166  0.70040312  0.50969409  1
  O  O20  1  0.20609684  0.70022003  0.73969023  1
  O  O21  1  0.21246618  0.71812058  0.01823739  1
  O  O22  1  0.27367146  0.21423907  0.47366984  1
  O  O23  1  0.28337804  0.21738701  0.26612522  1
  O  O24  1  0.27887005  0.21977025  0.77606790  1
  O  O25  1  0.28388704  0.21882097  0.98396292  1
  O  O26  1  0.51732607  0.41803102  0.12487391  1
  O  O27  1  0.50798165  0.42702828  0.62676070  1
  O  O28  1  0.48552651  0.56910219  0.87702868  1
  O  O29  1  0.48311024  0.56978522  0.37197315  1
  O  O30  1  0.70096080  0.80013286  0.02350483  1
  O  O31  1  0.70108892  0.79942032  0.22689425  1
  O  O32  1  0.70507800  0.79640953  0.51715292  1
  O  O33  1  0.70634341  0.78786296  0.73350316  1
  O  O34  1  0.79436914  0.29430234  0.47772355  1
  O  O35  1  0.79395333  0.29867665  0.27003138  1
  O  O36  1  0.79288649  0.29816576  0.77177213  1
  O  O37  1  0.79510338  0.29964552  0.98001628  1
  O  O38  1  0.01640993  0.06936399  0.12522890  1
  O  O39  1  0.02371370  0.06255123  0.62275531  1
