# generated using pymatgen
data_Nd2ZrGa3Rh4
_symmetry_space_group_name_H-M   'P 1'
_cell_length_a   4.23934594
_cell_length_b   4.23934594
_cell_length_c   10.87863457
_cell_angle_alpha   90.00000000
_cell_angle_beta   90.00000000
_cell_angle_gamma   90.00000000
_symmetry_Int_Tables_number   1
_chemical_formula_structural   Nd2ZrGa3Rh4
_chemical_formula_sum   'Nd2 Zr1 Ga3 Rh4'
_cell_volume   195.51140793
_cell_formula_units_Z   1
loop_
 _symmetry_equiv_pos_site_id
 _symmetry_equiv_pos_as_xyz
  1  'x, y, z'
loop_
 _atom_site_type_symbol
 _atom_site_label
 _atom_site_symmetry_multiplicity
 _atom_site_fract_x
 _atom_site_fract_y
 _atom_site_fract_z
 _atom_site_occupancy
  Nd  Nd0  1  0.50000000  0.00000000  0.22783742  1
  Nd  Nd1  1  0.00000000  0.50000000  0.77216258  1
  Zr  Zr2  1  0.50000000  0.50000000  0.50000000  1
  Ga  Ga3  1  0.00000000  0.00000000  0.50000000  1
  Ga  Ga4  1  0.50000000  0.00000000  0.87922240  1
  Ga  Ga5  1  0.00000000  0.50000000  0.12077760  1
  Rh  Rh6  1  0.50000000  0.50000000  0.00000000  1
  Rh  Rh7  1  0.00000000  0.00000000  0.00000000  1
  Rh  Rh8  1  0.50000000  0.00000000  0.64692899  1
  Rh  Rh9  1  0.00000000  0.50000000  0.35307101  1
