# generated using pymatgen
data_Sr3(Al2Ga)2
_symmetry_space_group_name_H-M   'P 1'
_cell_length_a   4.57310892
_cell_length_b   4.57310834
_cell_length_c   26.39694286
_cell_angle_alpha   90.00000000
_cell_angle_beta   90.00000000
_cell_angle_gamma   119.99999725
_symmetry_Int_Tables_number   1
_chemical_formula_structural   Sr3(Al2Ga)2
_chemical_formula_sum   'Sr6 Al8 Ga4'
_cell_volume   478.08741478
_cell_formula_units_Z   2
loop_
 _symmetry_equiv_pos_site_id
 _symmetry_equiv_pos_as_xyz
  1  'x, y, z'
loop_
 _atom_site_type_symbol
 _atom_site_label
 _atom_site_symmetry_multiplicity
 _atom_site_fract_x
 _atom_site_fract_y
 _atom_site_fract_z
 _atom_site_occupancy
  Sr  Sr0  1  0.33333300  0.66666700  0.24867077  1
  Sr  Sr1  1  0.33333300  0.66666700  0.58226117  1
  Sr  Sr2  1  0.33333300  0.66666700  0.91633677  1
  Sr  Sr3  1  0.33333300  0.66666700  0.08502289  1
  Sr  Sr4  1  0.33333300  0.66666700  0.41651143  1
  Sr  Sr5  1  0.33333300  0.66666700  0.75018403  1
  Al  Al6  1  0.66666700  0.33333300  0.49674822  1
  Al  Al7  1  0.66666700  0.33333300  0.83086267  1
  Al  Al8  1  0.66666700  0.33333300  0.00249501  1
  Al  Al9  1  0.66666700  0.33333300  0.33573084  1
  Al  Al10  1  0.66666700  0.33333300  0.66816701  1
  Al  Al11  1  0.00000000  0.00000000  0.32998283  1
  Al  Al12  1  0.00000000  0.00000000  0.66444433  1
  Al  Al13  1  0.00000000  0.00000000  0.99860151  1
  Ga  Ga14  1  0.00000000  0.00000000  0.17275725  1
  Ga  Ga15  1  0.00000000  0.00000000  0.50315235  1
  Ga  Ga16  1  0.00000000  0.00000000  0.83648783  1
  Ga  Ga17  1  0.66666700  0.33333300  0.16158509  1
