# generated using pymatgen
data_MgNpO4
_symmetry_space_group_name_H-M   'P 1'
_cell_length_a   4.99939227
_cell_length_b   5.76975079
_cell_length_c   6.37413905
_cell_angle_alpha   120.42986037
_cell_angle_beta   90.00000000
_cell_angle_gamma   90.00000000
_symmetry_Int_Tables_number   1
_chemical_formula_structural   MgNpO4
_chemical_formula_sum   'Mg2 Np2 O8'
_cell_volume   158.53637324
_cell_formula_units_Z   2
loop_
 _symmetry_equiv_pos_site_id
 _symmetry_equiv_pos_as_xyz
  1  'x, y, z'
loop_
 _atom_site_type_symbol
 _atom_site_label
 _atom_site_symmetry_multiplicity
 _atom_site_fract_x
 _atom_site_fract_y
 _atom_site_fract_z
 _atom_site_occupancy
  Mg  Mg0  1  0.00000000  0.00000000  0.50000000  1
  Mg  Mg1  1  0.50000000  0.50000000  0.00000000  1
  Np  Np2  1  0.50000000  0.50000000  0.50000000  1
  Np  Np3  1  0.00000000  0.00000000  0.00000000  1
  O  O4  1  0.69641594  0.68731299  0.84485300  1
  O  O5  1  0.80358406  0.18731299  0.34485300  1
  O  O6  1  0.31559433  0.30949619  0.63564235  1
  O  O7  1  0.81559433  0.19050381  0.86435765  1
  O  O8  1  0.18440567  0.80949619  0.13564235  1
  O  O9  1  0.68440567  0.69050381  0.36435765  1
  O  O10  1  0.19641594  0.81268701  0.65514700  1
  O  O11  1  0.30358406  0.31268701  0.15514700  1
