# generated using pymatgen
data_K3CuO2
_symmetry_space_group_name_H-M   'P 1'
_cell_length_a   8.89934007
_cell_length_b   6.55966713
_cell_length_c   18.12697671
_cell_angle_alpha   90.00000000
_cell_angle_beta   90.00000000
_cell_angle_gamma   90.00029626
_symmetry_Int_Tables_number   1
_chemical_formula_structural   K3CuO2
_chemical_formula_sum   'K6 Cu2 O4'
_cell_volume   1058.19323604
_cell_formula_units_Z   2
loop_
 _symmetry_equiv_pos_site_id
 _symmetry_equiv_pos_as_xyz
  1  'x, y, z'
loop_
 _atom_site_type_symbol
 _atom_site_label
 _atom_site_symmetry_multiplicity
 _atom_site_fract_x
 _atom_site_fract_y
 _atom_site_fract_z
 _atom_site_occupancy
  K  K0  1  0.12415244  0.09661149  0.58625209  1
  K  K1  1  0.12415295  0.97998306  0.41374805  1
  K  K2  1  0.62415244  0.59661149  0.58625208  1
  K  K3  1  0.62415295  0.47998307  0.41374805  1
  K  K4  1  0.96852887  0.53829434  0.49999990  1
  K  K5  1  0.46852887  0.03829435  0.49999990  1
  Cu  Cu6  1  0.28780348  0.53829652  0.49999998  1
  Cu  Cu7  1  0.78780347  0.03829652  0.49999999  1
  O  O8  1  0.25710551  0.79463112  0.53221497  1
  O  O9  1  0.25710488  0.28196125  0.46778501  1
  O  O10  1  0.75710552  0.29463111  0.53221497  1
  O  O11  1  0.75710488  0.78196124  0.46778501  1
