# generated using pymatgen
data_RuW3
_symmetry_space_group_name_H-M   'P 1'
_cell_length_a   2.75366878
_cell_length_b   4.43573400
_cell_length_c   5.22338542
_cell_angle_alpha   90.00000000
_cell_angle_beta   79.41165182
_cell_angle_gamma   90.00000000
_symmetry_Int_Tables_number   1
_chemical_formula_structural   RuW3
_chemical_formula_sum   'Ru1 W3'
_cell_volume   62.71490111
_cell_formula_units_Z   1
loop_
 _symmetry_equiv_pos_site_id
 _symmetry_equiv_pos_as_xyz
  1  'x, y, z'
loop_
 _atom_site_type_symbol
 _atom_site_label
 _atom_site_symmetry_multiplicity
 _atom_site_fract_x
 _atom_site_fract_y
 _atom_site_fract_z
 _atom_site_occupancy
  Ru  Ru0  1  0.00000000  0.00000000  0.00000000  1
  W  W1  1  0.73302652  0.50000000  0.74908786  1
  W  W2  1  0.50000000  0.00000000  0.50000000  1
  W  W3  1  0.26697348  0.50000000  0.25091214  1
