# generated using pymatgen
data_TiCl4
_symmetry_space_group_name_H-M   'P 1'
_cell_length_a   6.50754940
_cell_length_b   6.90659219
_cell_length_c   18.09861478
_cell_angle_alpha   90.00000000
_cell_angle_beta   90.00000000
_cell_angle_gamma   58.13159553
_symmetry_Int_Tables_number   1
_chemical_formula_structural   TiCl4
_chemical_formula_sum   'Ti1 Cl4'
_cell_volume   690.82621251
_cell_formula_units_Z   1
loop_
 _symmetry_equiv_pos_site_id
 _symmetry_equiv_pos_as_xyz
  1  'x, y, z'
loop_
 _atom_site_type_symbol
 _atom_site_label
 _atom_site_symmetry_multiplicity
 _atom_site_fract_x
 _atom_site_fract_y
 _atom_site_fract_z
 _atom_site_occupancy
  Ti  Ti0  1  0.01362799  0.11259063  0.49973478  1
  Cl  Cl1  1  0.69279126  0.18976748  0.56290051  1
  Cl  Cl2  1  0.01911823  0.42432045  0.48575447  1
  Cl  Cl3  1  0.33739776  0.86130483  0.55991701  1
  Cl  Cl4  1  0.00591537  0.97678591  0.39169322  1
