# generated using pymatgen
data_NaPaFeN3
_symmetry_space_group_name_H-M   'P 1'
_cell_length_a   3.73446481
_cell_length_b   6.70108058
_cell_length_c   6.89605091
_cell_angle_alpha   104.74738680
_cell_angle_beta   90.00000000
_cell_angle_gamma   106.17943799
_symmetry_Int_Tables_number   1
_chemical_formula_structural   NaPaFeN3
_chemical_formula_sum   'Na2 Pa2 Fe2 N6'
_cell_volume   159.81039704
_cell_formula_units_Z   2
loop_
 _symmetry_equiv_pos_site_id
 _symmetry_equiv_pos_as_xyz
  1  'x, y, z'
loop_
 _atom_site_type_symbol
 _atom_site_label
 _atom_site_symmetry_multiplicity
 _atom_site_fract_x
 _atom_site_fract_y
 _atom_site_fract_z
 _atom_site_occupancy
  Na  Na0  1  0.35520935  0.71041869  0.92839135  1
  Na  Na1  1  0.64479065  0.28958131  0.07160865  1
  Pa  Pa2  1  0.64994479  0.29988858  0.58565753  1
  Pa  Pa3  1  0.35005521  0.70011142  0.41434247  1
  Fe  Fe4  1  0.00234296  0.00468491  0.25889189  1
  Fe  Fe5  1  0.99765704  0.99531509  0.74110811  1
  N  N6  1  0.85203683  0.70407467  0.21223606  1
  N  N7  1  0.83255624  0.66511247  0.62195393  1
  N  N8  1  0.50882027  0.01764055  0.29239531  1
  N  N9  1  0.16744376  0.33488753  0.37804607  1
  N  N10  1  0.49117973  0.98235945  0.70760469  1
  N  N11  1  0.14796317  0.29592533  0.78776394  1
