# generated using pymatgen
data_BClF2
_symmetry_space_group_name_H-M   'P 1'
_cell_length_a   9.11640647
_cell_length_b   9.11640647
_cell_length_c   9.11640647
_cell_angle_alpha   18.31428662
_cell_angle_beta   18.31428671
_cell_angle_gamma   18.31428666
_symmetry_Int_Tables_number   1
_chemical_formula_structural   BClF2
_chemical_formula_sum   'B1 Cl1 F2'
_cell_volume   65.33954411
_cell_formula_units_Z   1
loop_
 _symmetry_equiv_pos_site_id
 _symmetry_equiv_pos_as_xyz
  1  'x, y, z'
loop_
 _atom_site_type_symbol
 _atom_site_label
 _atom_site_symmetry_multiplicity
 _atom_site_fract_x
 _atom_site_fract_y
 _atom_site_fract_z
 _atom_site_occupancy
  B  B0  1  0.00000000  0.00000000  0.00000000  1
  F  F1  1  0.95116114  0.95116114  0.95116114  1
  F  F2  1  0.04883886  0.04883886  0.04883886  1
  Cl  Cl3  1  0.50000000  0.50000000  0.50000000  1
