# generated using pymatgen
data_ErTm3Ag4
_symmetry_space_group_name_H-M   'P 1'
_cell_length_a   3.55234739
_cell_length_b   5.10885217
_cell_length_c   10.21278493
_cell_angle_alpha   90.00000000
_cell_angle_beta   90.00000000
_cell_angle_gamma   90.00000000
_symmetry_Int_Tables_number   1
_chemical_formula_structural   ErTm3Ag4
_chemical_formula_sum   'Er1 Tm3 Ag4'
_cell_volume   185.34588650
_cell_formula_units_Z   1
loop_
 _symmetry_equiv_pos_site_id
 _symmetry_equiv_pos_as_xyz
  1  'x, y, z'
loop_
 _atom_site_type_symbol
 _atom_site_label
 _atom_site_symmetry_multiplicity
 _atom_site_fract_x
 _atom_site_fract_y
 _atom_site_fract_z
 _atom_site_occupancy
  Tm  Tm0  1  0.50000000  0.00000000  0.25030700  1
  Tm  Tm1  1  0.50000000  0.50000000  0.50000000  1
  Tm  Tm2  1  0.50000000  0.00000000  0.74969300  1
  Ag  Ag3  1  0.00000000  0.00000000  0.50000000  1
  Ag  Ag4  1  0.00000000  0.50000000  0.74875317  1
  Ag  Ag5  1  0.00000000  0.00000000  0.00000000  1
  Ag  Ag6  1  0.00000000  0.50000000  0.25124683  1
  Er  Er7  1  0.50000000  0.50000000  0.00000000  1
