# generated using pymatgen
data_Te2Rh2Pb
_symmetry_space_group_name_H-M   'P 1'
_cell_length_a   4.05186127
_cell_length_b   4.05186127
_cell_length_c   7.93781558
_cell_angle_alpha   75.21306982
_cell_angle_beta   75.21306982
_cell_angle_gamma   90.00000000
_symmetry_Int_Tables_number   1
_chemical_formula_structural   Te2Rh2Pb
_chemical_formula_sum   'Te2 Rh2 Pb1'
_cell_volume   121.53459395
_cell_formula_units_Z   1
loop_
 _symmetry_equiv_pos_site_id
 _symmetry_equiv_pos_as_xyz
  1  'x, y, z'
loop_
 _atom_site_type_symbol
 _atom_site_label
 _atom_site_symmetry_multiplicity
 _atom_site_fract_x
 _atom_site_fract_y
 _atom_site_fract_z
 _atom_site_occupancy
  Pb  Pb0  1  0.00000000  0.00000000  0.00000000  1
  Te  Te1  1  0.36373744  0.36373744  0.27252511  1
  Te  Te2  1  0.63626256  0.63626256  0.72747489  1
  Rh  Rh3  1  0.75000000  0.25000000  0.50000000  1
  Rh  Rh4  1  0.25000000  0.75000000  0.50000000  1
