# generated using pymatgen
data_Mn9Zn6Si4(SbO14)2
_symmetry_space_group_name_H-M   'P 1'
_cell_length_a   5.59907085
_cell_length_b   9.34120413
_cell_length_c   11.81480497
_cell_angle_alpha   86.91299070
_cell_angle_beta   76.34294056
_cell_angle_gamma   79.21956504
_symmetry_Int_Tables_number   1
_chemical_formula_structural   Mn9Zn6Si4(SbO14)2
_chemical_formula_sum   'Mn9 Zn6 Si4 Sb2 O28'
_cell_volume   589.83937303
_cell_formula_units_Z   1
loop_
 _symmetry_equiv_pos_site_id
 _symmetry_equiv_pos_as_xyz
  1  'x, y, z'
loop_
 _atom_site_type_symbol
 _atom_site_label
 _atom_site_symmetry_multiplicity
 _atom_site_fract_x
 _atom_site_fract_y
 _atom_site_fract_z
 _atom_site_occupancy
  Mn  Mn0  1  0.63607571  0.64986472  0.29223396  1
  Mn  Mn1  1  0.00000000  0.00000000  0.00000000  1
  Mn  Mn2  1  0.92055390  0.64231946  0.71693927  1
  Mn  Mn3  1  0.27943953  0.00265269  0.42499703  1
  Mn  Mn4  1  0.42648901  0.00287144  0.14431595  1
  Mn  Mn5  1  0.57351099  0.99712856  0.85568405  1
  Mn  Mn6  1  0.72056047  0.99734731  0.57500297  1
  Mn  Mn7  1  0.07944610  0.35768054  0.28306073  1
  Mn  Mn8  1  0.36392429  0.35013528  0.70776604  1
  Zn  Zn9  1  0.66048068  0.33625098  0.13788007  1
  Zn  Zn10  1  0.05131155  0.67392208  0.42750518  1
  Zn  Zn11  1  0.20232224  0.66341857  0.13851429  1
  Zn  Zn12  1  0.79767776  0.33658143  0.86148571  1
  Zn  Zn13  1  0.94868845  0.32607792  0.57249482  1
  Zn  Zn14  1  0.33951932  0.66374902  0.86211993  1
  Si  Si15  1  0.75629047  0.69331133  0.00325552  1
  Si  Si16  1  0.52306630  0.31204508  0.42333106  1
  Si  Si17  1  0.47693370  0.68795492  0.57666894  1
  Si  Si18  1  0.24370953  0.30668867  0.99674448  1
  Sb  Sb19  1  0.13827673  0.99972395  0.71944874  1
  Sb  Sb20  1  0.86172327  0.00027605  0.28055126  1
  O  O21  1  0.58658665  0.88643979  0.29204203  1
  O  O22  1  0.40513169  0.87136363  0.58854601  1
  O  O23  1  0.69168272  0.87347644  0.00360142  1
  O  O24  1  0.67092641  0.38766655  0.30284116  1
  O  O25  1  0.38959901  0.64987279  0.46052229  1
  O  O26  1  0.73083376  0.11573667  0.15263014  1
  O  O27  1  0.58024301  0.62855742  0.12175513  1
  O  O28  1  0.94061322  0.35447085  0.00105845  1
  O  O29  1  0.22119639  0.35715466  0.43570285  1
  O  O30  1  0.88280524  0.87650184  0.71471432  1
  O  O31  1  0.98219708  0.40867969  0.71452876  1
  O  O32  1  0.11817314  0.88475266  0.15411724  1
  O  O33  1  0.31337170  0.36680505  0.11235639  1
  O  O34  1  0.97035804  0.89373483  0.41761655  1
  O  O35  1  0.02964196  0.10626517  0.58238345  1
  O  O36  1  0.68662830  0.63319495  0.88764361  1
  O  O37  1  0.88182686  0.11524734  0.84588276  1
  O  O38  1  0.01780292  0.59132031  0.28547124  1
  O  O39  1  0.11719476  0.12349816  0.28528568  1
  O  O40  1  0.77880361  0.64284534  0.56429715  1
  O  O41  1  0.05938678  0.64552915  0.99894155  1
  O  O42  1  0.41975699  0.37144258  0.87824487  1
  O  O43  1  0.26916624  0.88426333  0.84736986  1
  O  O44  1  0.61040099  0.35012721  0.53947771  1
  O  O45  1  0.32907359  0.61233345  0.69715884  1
  O  O46  1  0.30831728  0.12652356  0.99639858  1
  O  O47  1  0.59486831  0.12863637  0.41145399  1
  O  O48  1  0.41341335  0.11356021  0.70795797  1
