# generated using pymatgen
data_Ca2BeGe3Ir4
_symmetry_space_group_name_H-M   'P 1'
_cell_length_a   4.16720361
_cell_length_b   4.16720361
_cell_length_c   10.18640888
_cell_angle_alpha   90.00000000
_cell_angle_beta   90.00000000
_cell_angle_gamma   90.00000000
_symmetry_Int_Tables_number   1
_chemical_formula_structural   Ca2BeGe3Ir4
_chemical_formula_sum   'Ca2 Be1 Ge3 Ir4'
_cell_volume   176.89295870
_cell_formula_units_Z   1
loop_
 _symmetry_equiv_pos_site_id
 _symmetry_equiv_pos_as_xyz
  1  'x, y, z'
loop_
 _atom_site_type_symbol
 _atom_site_label
 _atom_site_symmetry_multiplicity
 _atom_site_fract_x
 _atom_site_fract_y
 _atom_site_fract_z
 _atom_site_occupancy
  Ca  Ca0  1  0.50000000  0.00000000  0.25488568  1
  Ca  Ca1  1  0.00000000  0.50000000  0.74511432  1
  Be  Be2  1  0.50000000  0.50000000  0.50000000  1
  Ge  Ge3  1  0.00000000  0.00000000  0.50000000  1
  Ge  Ge4  1  0.50000000  0.00000000  0.86698785  1
  Ge  Ge5  1  0.00000000  0.50000000  0.13301215  1
  Ir  Ir6  1  0.50000000  0.50000000  0.00000000  1
  Ir  Ir7  1  0.00000000  0.00000000  0.00000000  1
  Ir  Ir8  1  0.50000000  0.00000000  0.62420155  1
  Ir  Ir9  1  0.00000000  0.50000000  0.37579845  1
