# generated using pymatgen
data_Na(MgH2)4
_symmetry_space_group_name_H-M   'P 1'
_cell_length_a   6.11714864
_cell_length_b   6.11714864
_cell_length_c   6.11714864
_cell_angle_alpha   59.99999998
_cell_angle_beta   60.00000001
_cell_angle_gamma   60.00000000
_symmetry_Int_Tables_number   1
_chemical_formula_structural   Na(MgH2)4
_chemical_formula_sum   'Na1 Mg4 H8'
_cell_volume   161.85722962
_cell_formula_units_Z   1
loop_
 _symmetry_equiv_pos_site_id
 _symmetry_equiv_pos_as_xyz
  1  'x, y, z'
loop_
 _atom_site_type_symbol
 _atom_site_label
 _atom_site_symmetry_multiplicity
 _atom_site_fract_x
 _atom_site_fract_y
 _atom_site_fract_z
 _atom_site_occupancy
  Na  Na0  1  0.75000000  0.75000000  0.75000000  1
  Mg  Mg1  1  0.88010287  0.37329904  0.37329904  1
  Mg  Mg2  1  0.37330004  0.88010187  0.37329904  1
  Mg  Mg3  1  0.37330004  0.37329904  0.88010187  1
  Mg  Mg4  1  0.37330004  0.37329904  0.37329904  1
  H  H5  1  0.56995077  0.14334974  0.14334974  1
  H  H6  1  0.14334974  0.56995077  0.14334974  1
  H  H7  1  0.14334974  0.14334974  0.56995077  1
  H  H8  1  0.14334974  0.14334974  0.14334974  1
  H  H9  1  0.18843621  0.60385460  0.60385460  1
  H  H10  1  0.60385560  0.18843521  0.60385460  1
  H  H11  1  0.60385560  0.60385460  0.18843521  1
  H  H12  1  0.60385560  0.60385460  0.60385460  1
