# generated using pymatgen
data_BaWC2
_symmetry_space_group_name_H-M   'P 1'
_cell_length_a   6.02067369
_cell_length_b   6.02067369
_cell_length_c   6.06504172
_cell_angle_alpha   60.24169698
_cell_angle_beta   60.24169698
_cell_angle_gamma   90.00000000
_symmetry_Int_Tables_number   1
_chemical_formula_structural   BaWC2
_chemical_formula_sum   'Ba2 W2 C4'
_cell_volume   156.58549538
_cell_formula_units_Z   2
loop_
 _symmetry_equiv_pos_site_id
 _symmetry_equiv_pos_as_xyz
  1  'x, y, z'
loop_
 _atom_site_type_symbol
 _atom_site_label
 _atom_site_symmetry_multiplicity
 _atom_site_fract_x
 _atom_site_fract_y
 _atom_site_fract_z
 _atom_site_occupancy
  C  C0  1  0.76345891  0.12500000  0.25000000  1
  C  C1  1  0.98654109  0.62500000  0.25000000  1
  C  C2  1  0.37500000  0.23654109  0.75000000  1
  C  C3  1  0.87500000  0.01345891  0.75000000  1
  Ba  Ba4  1  0.50000000  0.50000000  0.00000000  1
  Ba  Ba5  1  0.25000000  0.75000000  0.50000000  1
  W  W6  1  0.00000000  0.00000000  0.00000000  1
  W  W7  1  0.75000000  0.25000000  0.50000000  1
