# generated using pymatgen
data_Pr3SmHo3
_symmetry_space_group_name_H-M   'P 1'
_cell_length_a   5.81360298
_cell_length_b   9.71666301
_cell_length_c   9.71666301
_cell_angle_alpha   119.99999999
_cell_angle_beta   90.00000000
_cell_angle_gamma   90.00000000
_symmetry_Int_Tables_number   1
_chemical_formula_structural   Pr3SmHo3
_chemical_formula_sum   'Pr6 Sm2 Ho6'
_cell_volume   475.34648141
_cell_formula_units_Z   2
loop_
 _symmetry_equiv_pos_site_id
 _symmetry_equiv_pos_as_xyz
  1  'x, y, z'
loop_
 _atom_site_type_symbol
 _atom_site_label
 _atom_site_symmetry_multiplicity
 _atom_site_fract_x
 _atom_site_fract_y
 _atom_site_fract_z
 _atom_site_occupancy
  Pr  Pr0  1  0.75000000  0.62210063  0.52644243  1
  Pr  Pr1  1  0.75000000  0.47355757  0.09565820  1
  Pr  Pr2  1  0.75000000  0.90434180  0.37789937  1
  Pr  Pr3  1  0.25000000  0.37789937  0.47355757  1
  Pr  Pr4  1  0.25000000  0.52644243  0.90434180  1
  Pr  Pr5  1  0.25000000  0.09565820  0.62210063  1
  Sm  Sm6  1  0.25000000  0.66666667  0.33333333  1
  Sm  Sm7  1  0.75000000  0.33333333  0.66666667  1
  Ho  Ho8  1  0.25000000  0.81329574  0.76766423  1
  Ho  Ho9  1  0.25000000  0.23233577  0.04563151  1
  Ho  Ho10  1  0.25000000  0.95436849  0.18670426  1
  Ho  Ho11  1  0.75000000  0.18670426  0.23233577  1
  Ho  Ho12  1  0.75000000  0.76766423  0.95436849  1
  Ho  Ho13  1  0.75000000  0.04563151  0.81329574  1
