# generated using pymatgen
data_Pr(NpS2)3
_symmetry_space_group_name_H-M   'P 1'
_cell_length_a   4.00244114
_cell_length_b   10.88573234
_cell_length_c   11.49243791
_cell_angle_alpha   107.28789291
_cell_angle_beta   90.00000000
_cell_angle_gamma   90.00000000
_symmetry_Int_Tables_number   1
_chemical_formula_structural   Pr(NpS2)3
_chemical_formula_sum   'Pr2 Np6 S12'
_cell_volume   478.09909714
_cell_formula_units_Z   2
loop_
 _symmetry_equiv_pos_site_id
 _symmetry_equiv_pos_as_xyz
  1  'x, y, z'
loop_
 _atom_site_type_symbol
 _atom_site_label
 _atom_site_symmetry_multiplicity
 _atom_site_fract_x
 _atom_site_fract_y
 _atom_site_fract_z
 _atom_site_occupancy
  Pr  Pr0  1  0.75000000  0.05015199  0.69548225  1
  Pr  Pr1  1  0.25000000  0.94984801  0.30451775  1
  Np  Np2  1  0.75000000  0.44162608  0.83497275  1
  Np  Np3  1  0.25000000  0.55837392  0.16502725  1
  Np  Np4  1  0.75000000  0.68245790  0.50143350  1
  Np  Np5  1  0.25000000  0.31754210  0.49856650  1
  Np  Np6  1  0.75000000  0.15856373  0.08151026  1
  Np  Np7  1  0.25000000  0.84143627  0.91848974  1
  S  S8  1  0.75000000  0.48194488  0.61219161  1
  S  S9  1  0.25000000  0.51805512  0.38780839  1
  S  S10  1  0.75000000  0.91380757  0.09269563  1
  S  S11  1  0.25000000  0.08619243  0.90730437  1
  S  S12  1  0.75000000  0.39688536  0.05614892  1
  S  S13  1  0.25000000  0.60311464  0.94385108  1
  S  S14  1  0.75000000  0.73231903  0.27042503  1
  S  S15  1  0.25000000  0.26768097  0.72957497  1
  S  S16  1  0.75000000  0.12145389  0.46098487  1
  S  S17  1  0.25000000  0.87854611  0.53901513  1
  S  S18  1  0.75000000  0.80281481  0.75628999  1
  S  S19  1  0.25000000  0.19718519  0.24371001  1
