# generated using pymatgen
data_Ca2SeO2
_symmetry_space_group_name_H-M   'P 1'
_cell_length_a   3.85223841
_cell_length_b   3.85223840
_cell_length_c   7.66214893
_cell_angle_alpha   90.00000000
_cell_angle_beta   90.00000000
_cell_angle_gamma   60.00000003
_symmetry_Int_Tables_number   1
_chemical_formula_structural   Ca2SeO2
_chemical_formula_sum   'Ca2 Se1 O2'
_cell_volume   98.47081552
_cell_formula_units_Z   1
loop_
 _symmetry_equiv_pos_site_id
 _symmetry_equiv_pos_as_xyz
  1  'x, y, z'
loop_
 _atom_site_type_symbol
 _atom_site_label
 _atom_site_symmetry_multiplicity
 _atom_site_fract_x
 _atom_site_fract_y
 _atom_site_fract_z
 _atom_site_occupancy
  Ca  Ca0  1  0.33333333  0.33333333  0.32342435  1
  Ca  Ca1  1  0.66666667  0.66666667  0.67657565  1
  O  O2  1  0.33333333  0.33333333  0.63312170  1
  O  O3  1  0.66666667  0.66666667  0.36687830  1
  Se  Se4  1  0.00000000  0.00000000  0.00000000  1
