# generated using pymatgen
data_Sc(TcBi)2
_symmetry_space_group_name_H-M   'P 1'
_cell_length_a   4.66911453
_cell_length_b   4.66911453
_cell_length_c   6.34600921
_cell_angle_alpha   68.41519174
_cell_angle_beta   68.41519174
_cell_angle_gamma   90.00000000
_symmetry_Int_Tables_number   1
_chemical_formula_structural   Sc(TcBi)2
_chemical_formula_sum   'Sc1 Tc2 Bi2'
_cell_volume   118.14959784
_cell_formula_units_Z   1
loop_
 _symmetry_equiv_pos_site_id
 _symmetry_equiv_pos_as_xyz
  1  'x, y, z'
loop_
 _atom_site_type_symbol
 _atom_site_label
 _atom_site_symmetry_multiplicity
 _atom_site_fract_x
 _atom_site_fract_y
 _atom_site_fract_z
 _atom_site_occupancy
  Sc  Sc0  1  0.00000000  0.00000000  0.00000000  1
  Bi  Bi1  1  0.36586387  0.36586387  0.26827226  1
  Bi  Bi2  1  0.63413613  0.63413613  0.73172774  1
  Tc  Tc3  1  0.75000000  0.25000000  0.50000000  1
  Tc  Tc4  1  0.25000000  0.75000000  0.50000000  1
