# generated using pymatgen
data_Ca12Te3H5
_symmetry_space_group_name_H-M   'P 1'
_cell_length_a   14.05835395
_cell_length_b   14.05835394
_cell_length_c   14.05835393
_cell_angle_alpha   109.47122063
_cell_angle_beta   109.47122064
_cell_angle_gamma   109.47122064
_symmetry_Int_Tables_number   1
_chemical_formula_structural   Ca12Te3H5
_chemical_formula_sum   'Ca48 Te12 H20'
_cell_volume   2138.85591244
_cell_formula_units_Z   4
loop_
 _symmetry_equiv_pos_site_id
 _symmetry_equiv_pos_as_xyz
  1  'x, y, z'
loop_
 _atom_site_type_symbol
 _atom_site_label
 _atom_site_symmetry_multiplicity
 _atom_site_fract_x
 _atom_site_fract_y
 _atom_site_fract_z
 _atom_site_occupancy
  Te  Te0  1  0.75000000  0.37500000  0.12500000  1
  Te  Te1  1  0.87500000  0.75000000  0.12500000  1
  Te  Te2  1  0.37500000  0.75000000  0.62500000  1
  Te  Te3  1  0.25000000  0.12500000  0.37500000  1
  Te  Te4  1  0.87500000  0.12500000  0.25000000  1
  Te  Te5  1  0.37500000  0.62500000  0.25000000  1
  Te  Te6  1  0.62500000  0.37500000  0.75000000  1
  Te  Te7  1  0.12500000  0.87500000  0.75000000  1
  Te  Te8  1  0.75000000  0.87500000  0.62500000  1
  Te  Te9  1  0.62500000  0.25000000  0.37500000  1
  Te  Te10  1  0.12500000  0.25000000  0.87500000  1
  Te  Te11  1  0.25000000  0.62500000  0.87500000  1
  H  H12  1  0.12500000  0.37500000  0.25000000  1
  H  H13  1  0.00000000  0.50000000  0.00000000  1
  H  H14  1  0.00000000  0.00000000  0.00000000  1
  H  H15  1  0.37500000  0.25000000  0.12500000  1
  H  H16  1  0.50000000  -0.00000000  0.50000000  1
  H  H17  1  0.50000000  0.50000000  0.00000000  1
  H  H18  1  0.12500000  0.75000000  0.37500000  1
  H  H19  1  0.75000000  0.12500000  0.87500000  1
  H  H20  1  0.75000000  0.62500000  0.37500000  1
  H  H21  1  0.37500000  0.12500000  0.75000000  1
  H  H22  1  0.62500000  0.87500000  0.25000000  1
  H  H23  1  0.50000000  0.50000000  0.50000000  1
  H  H24  1  0.50000000  0.00000000  0.00000000  1
  H  H25  1  -0.00000000  -0.00000000  0.50000000  1
  H  H26  1  0.25000000  0.37500000  0.62500000  1
  H  H27  1  0.25000000  0.87500000  0.12500000  1
  H  H28  1  -0.00000000  0.50000000  0.50000000  1
  H  H29  1  0.87500000  0.25000000  0.62500000  1
  H  H30  1  0.62500000  0.75000000  0.87500000  1
  H  H31  1  0.87500000  0.62500000  0.75000000  1
  Ca  Ca32  1  0.70607181  0.11112877  0.01003691  1
  Ca  Ca33  1  0.30396510  0.51003691  0.39890815  1
  Ca  Ca34  1  0.98996309  0.38887123  0.29392819  1
  Ca  Ca35  1  0.51003691  0.20607181  0.11112877  1
  Ca  Ca36  1  0.59494304  0.70607181  0.69603490  1
  Ca  Ca37  1  0.98996309  0.60109185  0.19603490  1
  Ca  Ca38  1  0.30396510  0.79392819  0.40505696  1
  Ca  Ca39  1  0.10109185  0.90505696  0.11112877  1
  Ca  Ca40  1  0.60109185  0.98996309  0.69603490  1
  Ca  Ca41  1  0.70607181  0.59494304  0.19603490  1
  Ca  Ca42  1  0.79392819  0.48996309  0.38887123  1
  Ca  Ca43  1  0.80396510  0.89890815  0.01003691  1
  Ca  Ca44  1  0.11112877  0.70607181  0.51003691  1
  Ca  Ca45  1  0.38887123  0.39890815  0.09494304  1
  Ca  Ca46  1  0.09494304  0.89890815  0.38887123  1
  Ca  Ca47  1  0.40505696  0.11112877  0.60109185  1
  Ca  Ca48  1  0.09494304  0.19603490  0.20607181  1
  Ca  Ca49  1  0.48996309  0.69603490  0.10109185  1
  Ca  Ca50  1  0.80396510  0.90505696  0.29392819  1
  Ca  Ca51  1  0.11112877  0.40505696  0.10109185  1
  Ca  Ca52  1  0.38887123  0.98996309  0.79392819  1
  Ca  Ca53  1  0.60109185  0.61112877  0.40505696  1
  Ca  Ca54  1  0.89890815  0.80396510  0.51003691  1
  Ca  Ca55  1  0.79392819  0.30396510  0.90505696  1
  Ca  Ca56  1  0.39890815  0.38887123  0.59494304  1
  Ca  Ca57  1  0.10109185  0.19603490  0.48996309  1
  Ca  Ca58  1  0.20607181  0.69603490  0.09494304  1
  Ca  Ca59  1  0.19603490  0.09494304  0.70607181  1
  Ca  Ca60  1  0.61112877  0.01003691  0.20607181  1
  Ca  Ca61  1  0.88887123  0.59494304  0.89890815  1
  Ca  Ca62  1  0.51003691  0.30396510  0.89890815  1
  Ca  Ca63  1  0.59494304  0.88887123  0.39890815  1
  Ca  Ca64  1  0.90505696  0.80396510  0.79392819  1
  Ca  Ca65  1  0.90505696  0.10109185  0.61112877  1
  Ca  Ca66  1  0.88887123  0.29392819  0.48996309  1
  Ca  Ca67  1  0.19603490  0.10109185  0.98996309  1
  Ca  Ca68  1  0.61112877  0.60109185  0.90505696  1
  Ca  Ca69  1  0.39890815  0.01003691  0.30396510  1
  Ca  Ca70  1  0.29392819  0.40505696  0.80396510  1
  Ca  Ca71  1  0.20607181  0.51003691  0.61112877  1
  Ca  Ca72  1  0.89890815  0.09494304  0.88887123  1
  Ca  Ca73  1  0.69603490  0.20607181  0.59494304  1
  Ca  Ca74  1  0.48996309  0.79392819  0.88887123  1
  Ca  Ca75  1  0.01003691  0.39890815  0.80396510  1
  Ca  Ca76  1  0.40505696  0.29392819  0.30396510  1
  Ca  Ca77  1  0.01003691  0.61112877  0.70607181  1
  Ca  Ca78  1  0.69603490  0.48996309  0.60109185  1
  Ca  Ca79  1  0.29392819  0.88887123  0.98996309  1
