# generated using pymatgen
data_SrCr2SiS6
_symmetry_space_group_name_H-M   'P 1'
_cell_length_a   6.30033186
_cell_length_b   6.30044344
_cell_length_c   6.67997964
_cell_angle_alpha   61.86030404
_cell_angle_beta   61.86099462
_cell_angle_gamma   59.99847979
_symmetry_Int_Tables_number   1
_chemical_formula_structural   SrCr2SiS6
_chemical_formula_sum   'Sr1 Cr2 Si1 S6'
_cell_volume   192.59601064
_cell_formula_units_Z   1
loop_
 _symmetry_equiv_pos_site_id
 _symmetry_equiv_pos_as_xyz
  1  'x, y, z'
loop_
 _atom_site_type_symbol
 _atom_site_label
 _atom_site_symmetry_multiplicity
 _atom_site_fract_x
 _atom_site_fract_y
 _atom_site_fract_z
 _atom_site_occupancy
  Sr  Sr0  1  0.79074927  0.79075526  0.62773901  1
  Cr  Cr1  1  0.52156775  0.52159282  0.43527334  1
  Cr  Cr2  1  0.00751600  0.00754921  0.97739605  1
  Si  Si3  1  0.32606120  0.32604531  0.02184473  1
  S  S4  1  0.59799755  0.25279175  0.22509412  1
  S  S5  1  0.25279247  0.92410674  0.22509170  1
  S  S6  1  0.92411060  0.59799717  0.22509470  1
  S  S7  1  0.33132781  0.72246527  0.75922848  1
  S  S8  1  0.72248206  0.18696298  0.75921710  1
  S  S9  1  0.18699229  0.33133450  0.75922177  1
