# generated using pymatgen
data_K10Te4Cl
_symmetry_space_group_name_H-M   'P 1'
_cell_length_a   5.82402556
_cell_length_b   5.82402605
_cell_length_c   23.84159125
_cell_angle_alpha   82.98437796
_cell_angle_beta   82.98436565
_cell_angle_gamma   59.99999605
_symmetry_Int_Tables_number   1
_chemical_formula_structural   K10Te4Cl
_chemical_formula_sum   'K10 Te4 Cl1'
_cell_volume   693.34539931
_cell_formula_units_Z   1
loop_
 _symmetry_equiv_pos_site_id
 _symmetry_equiv_pos_as_xyz
  1  'x, y, z'
loop_
 _atom_site_type_symbol
 _atom_site_label
 _atom_site_symmetry_multiplicity
 _atom_site_fract_x
 _atom_site_fract_y
 _atom_site_fract_z
 _atom_site_occupancy
  K  K0  1  0.95063054  0.95063054  0.14810837  1
  K  K1  1  0.14993171  0.14993171  0.55020386  1
  K  K2  1  0.55006917  0.55006917  0.34979149  1
  K  K3  1  0.34973225  0.34973225  0.95080226  1
  K  K4  1  0.74958386  0.74958386  0.75124842  1
  K  K5  1  0.65026775  0.65026775  0.04919774  1
  K  K6  1  0.85006829  0.85006829  0.44979614  1
  K  K7  1  0.25041614  0.25041614  0.24875158  1
  K  K8  1  0.04936946  0.04936946  0.85189163  1
  K  K9  1  0.44993083  0.44993083  0.65020851  1
  Te  Te10  1  0.39925123  0.39925123  0.80224630  1
  Te  Te11  1  0.79978952  0.79978952  0.60063245  1
  Te  Te12  1  0.20021048  0.20021048  0.39936755  1
  Te  Te13  1  0.60074877  0.60074877  0.19775370  1
  Cl  Cl14  1  0.00000000  0.00000000  0.00000000  1
