# generated using pymatgen
data_Hf6FeCo2
_symmetry_space_group_name_H-M   'P 1'
_cell_length_a   5.51113264
_cell_length_b   6.75640761
_cell_length_c   8.88765929
_cell_angle_alpha   90.00000000
_cell_angle_beta   89.24035258
_cell_angle_gamma   90.00000000
_symmetry_Int_Tables_number   1
_chemical_formula_structural   Hf6FeCo2
_chemical_formula_sum   'Hf12 Fe2 Co4'
_cell_volume   330.90698255
_cell_formula_units_Z   2
loop_
 _symmetry_equiv_pos_site_id
 _symmetry_equiv_pos_as_xyz
  1  'x, y, z'
loop_
 _atom_site_type_symbol
 _atom_site_label
 _atom_site_symmetry_multiplicity
 _atom_site_fract_x
 _atom_site_fract_y
 _atom_site_fract_z
 _atom_site_occupancy
  Hf  Hf0  1  0.83380434  0.94105645  0.24655486  1
  Hf  Hf1  1  0.83709581  0.65520526  0.55547097  1
  Hf  Hf2  1  0.85664257  0.70605743  0.93378326  1
  Hf  Hf3  1  0.64335743  0.20605743  0.56621674  1
  Hf  Hf4  1  0.66290419  0.15520526  0.94452903  1
  Hf  Hf5  1  0.66619566  0.44105645  0.25344514  1
  Hf  Hf6  1  0.16619566  0.05894355  0.75344514  1
  Hf  Hf7  1  0.16290419  0.34479474  0.44452903  1
  Hf  Hf8  1  0.14335743  0.29394257  0.06621674  1
  Hf  Hf9  1  0.35664257  0.79394257  0.43378326  1
  Hf  Hf10  1  0.33709581  0.84479474  0.05547097  1
  Hf  Hf11  1  0.33380434  0.55894355  0.74655486  1
  Fe  Fe12  1  0.50000000  0.50000000  0.00000000  1
  Fe  Fe13  1  -0.00000000  0.00000000  0.50000000  1
  Co  Co14  1  0.90325107  0.39515537  0.77452125  1
  Co  Co15  1  0.59674893  0.89515537  0.72547875  1
  Co  Co16  1  0.40325107  0.10484463  0.27452125  1
  Co  Co17  1  0.09674893  0.60484463  0.22547875  1
