# generated using pymatgen
data_LaTb3(Pr3Ho)2
_symmetry_space_group_name_H-M   'P 1'
_cell_length_a   6.33800307
_cell_length_b   6.33800306
_cell_length_c   12.01664538
_cell_angle_alpha   95.04111369
_cell_angle_beta   95.04111365
_cell_angle_gamma   120.00705652
_symmetry_Int_Tables_number   1
_chemical_formula_structural   LaTb3(Pr3Ho)2
_chemical_formula_sum   'La1 Tb3 Pr6 Ho2'
_cell_volume   411.50401377
_cell_formula_units_Z   1
loop_
 _symmetry_equiv_pos_site_id
 _symmetry_equiv_pos_as_xyz
  1  'x, y, z'
loop_
 _atom_site_type_symbol
 _atom_site_label
 _atom_site_symmetry_multiplicity
 _atom_site_fract_x
 _atom_site_fract_y
 _atom_site_fract_z
 _atom_site_occupancy
  La  La0  1  0.00000000  0.00000000  0.00000000  1
  Tb  Tb1  1  0.16710540  0.83289460  0.50000000  1
  Tb  Tb2  1  0.83289460  0.16710540  0.50000000  1
  Tb  Tb3  1  0.50000000  0.50000000  0.50000000  1
  Pr  Pr4  1  0.91601939  0.58161713  0.74856398  1
  Pr  Pr5  1  0.74984978  0.74984978  0.25159006  1
  Pr  Pr6  1  0.08398061  0.41838287  0.25143602  1
  Pr  Pr7  1  0.58161713  0.91601939  0.74856398  1
  Pr  Pr8  1  0.25015022  0.25015022  0.74840994  1
  Pr  Pr9  1  0.41838287  0.08398061  0.25143602  1
  Ho  Ho10  1  0.33353142  0.66646858  0.00000000  1
  Ho  Ho11  1  0.66646858  0.33353142  0.00000000  1
