# generated using pymatgen
data_Tb2PrInAu4
_symmetry_space_group_name_H-M   'P 1'
_cell_length_a   5.06730404
_cell_length_b   5.06730403
_cell_length_c   8.96781420
_cell_angle_alpha   73.58890220
_cell_angle_beta   73.58890221
_cell_angle_gamma   59.99999996
_symmetry_Int_Tables_number   1
_chemical_formula_structural   Tb2PrInAu4
_chemical_formula_sum   'Tb2 Pr1 In1 Au4'
_cell_volume   188.51057683
_cell_formula_units_Z   1
loop_
 _symmetry_equiv_pos_site_id
 _symmetry_equiv_pos_as_xyz
  1  'x, y, z'
loop_
 _atom_site_type_symbol
 _atom_site_label
 _atom_site_symmetry_multiplicity
 _atom_site_fract_x
 _atom_site_fract_y
 _atom_site_fract_z
 _atom_site_occupancy
  Tb  Tb0  1  0.75926486  0.75926486  0.72220543  1
  Tb  Tb1  1  0.24073514  0.24073514  0.27779457  1
  Pr  Pr2  1  0.00000000  0.00000000  0.00000000  1
  In  In3  1  0.50000000  0.50000000  0.50000000  1
  Au  Au4  1  0.37398795  0.37398795  0.87803615  1
  Au  Au5  1  0.87959482  0.87959482  0.36121554  1
  Au  Au6  1  0.12040518  0.12040518  0.63878446  1
  Au  Au7  1  0.62601205  0.62601205  0.12196385  1
