# generated using pymatgen
data_KCdPO4
_symmetry_space_group_name_H-M   'P 1'
_cell_length_a   5.55140703
_cell_length_b   5.80368186
_cell_length_c   7.07705168
_cell_angle_alpha   90.00000000
_cell_angle_beta   106.67009118
_cell_angle_gamma   90.00000000
_symmetry_Int_Tables_number   1
_chemical_formula_structural   KCdPO4
_chemical_formula_sum   'K2 Cd2 P2 O8'
_cell_volume   218.42986582
_cell_formula_units_Z   2
loop_
 _symmetry_equiv_pos_site_id
 _symmetry_equiv_pos_as_xyz
  1  'x, y, z'
loop_
 _atom_site_type_symbol
 _atom_site_label
 _atom_site_symmetry_multiplicity
 _atom_site_fract_x
 _atom_site_fract_y
 _atom_site_fract_z
 _atom_site_occupancy
  K  K0  1  0.69689414  0.75000000  0.93317904  1
  K  K1  1  0.30310586  0.25000000  0.06682096  1
  Cd  Cd2  1  0.79272851  0.75000000  0.46519626  1
  Cd  Cd3  1  0.20727149  0.25000000  0.53480374  1
  P  P4  1  0.24647975  0.75000000  0.33731239  1
  P  P5  1  0.75352025  0.25000000  0.66268761  1
  O  O6  1  0.93799585  0.46351442  0.69989073  1
  O  O7  1  0.06200415  0.96351442  0.30010927  1
  O  O8  1  0.06200415  0.53648558  0.30010927  1
  O  O9  1  0.93799585  0.03648558  0.69989073  1
  O  O10  1  0.41434055  0.75000000  0.19513668  1
  O  O11  1  0.58565945  0.25000000  0.80486332  1
  O  O12  1  0.41641055  0.75000000  0.55323157  1
  O  O13  1  0.58358945  0.25000000  0.44676843  1
