# generated using pymatgen
data_Tm12Ir2Au5
_symmetry_space_group_name_H-M   'P 1'
_cell_length_a   7.43291967
_cell_length_b   8.86742047
_cell_length_c   9.01702080
_cell_angle_alpha   103.45979872
_cell_angle_beta   90.00000000
_cell_angle_gamma   114.77866165
_symmetry_Int_Tables_number   1
_chemical_formula_structural   Tm12Ir2Au5
_chemical_formula_sum   'Tm12 Ir2 Au5'
_cell_volume   521.56886330
_cell_formula_units_Z   1
loop_
 _symmetry_equiv_pos_site_id
 _symmetry_equiv_pos_as_xyz
  1  'x, y, z'
loop_
 _atom_site_type_symbol
 _atom_site_label
 _atom_site_symmetry_multiplicity
 _atom_site_fract_x
 _atom_site_fract_y
 _atom_site_fract_z
 _atom_site_occupancy
  Tm  Tm0  1  0.98003809  0.96007619  0.17878513  1
  Tm  Tm1  1  0.09177892  0.65657988  0.89761822  1
  Tm  Tm2  1  0.56480096  0.65657988  0.89761822  1
  Tm  Tm3  1  0.10266926  0.71066074  0.43618669  1
  Tm  Tm4  1  0.60799147  0.71066074  0.43618669  1
  Tm  Tm5  1  0.49825804  0.99651609  0.74843277  1
  Tm  Tm6  1  0.50174196  0.00348391  0.25156723  1
  Tm  Tm7  1  0.89733074  0.28933926  0.56381331  1
  Tm  Tm8  1  0.39200853  0.28933926  0.56381331  1
  Tm  Tm9  1  0.90822108  0.34342012  0.10238178  1
  Tm  Tm10  1  0.43519904  0.34342012  0.10238178  1
  Tm  Tm11  1  0.01996191  0.03992381  0.82121487  1
  Ir  Ir12  1  0.71192062  0.00000000  0.00000000  1
  Ir  Ir13  1  0.28807938  0.00000000  0.00000000  1
  Au  Au14  1  0.29309969  0.58619937  0.63274595  1
  Au  Au15  1  0.31158746  0.62317492  0.16256810  1
  Au  Au16  1  -0.00000000  -0.00000000  0.50000000  1
  Au  Au17  1  0.68841254  0.37682508  0.83743190  1
  Au  Au18  1  0.70690031  0.41380063  0.36725405  1
