# generated using pymatgen
data_Na2CuBr2
_symmetry_space_group_name_H-M   'P 1'
_cell_length_a   8.36749295
_cell_length_b   8.36749295
_cell_length_c   3.62503746
_cell_angle_alpha   90.00000000
_cell_angle_beta   90.00000000
_cell_angle_gamma   90.00000000
_symmetry_Int_Tables_number   1
_chemical_formula_structural   Na2CuBr2
_chemical_formula_sum   'Na4 Cu2 Br4'
_cell_volume   253.80677398
_cell_formula_units_Z   2
loop_
 _symmetry_equiv_pos_site_id
 _symmetry_equiv_pos_as_xyz
  1  'x, y, z'
loop_
 _atom_site_type_symbol
 _atom_site_label
 _atom_site_symmetry_multiplicity
 _atom_site_fract_x
 _atom_site_fract_y
 _atom_site_fract_z
 _atom_site_occupancy
  Na  Na0  1  0.35456096  0.85456096  0.00000000  1
  Na  Na1  1  0.85456096  0.64543904  0.00000000  1
  Na  Na2  1  0.64543904  0.14543904  0.00000000  1
  Na  Na3  1  0.14543904  0.35456096  0.00000000  1
  Cu  Cu4  1  0.00000000  0.00000000  0.00000000  1
  Cu  Cu5  1  0.50000000  0.50000000  0.00000000  1
  Br  Br6  1  0.15698459  0.65698459  0.50000000  1
  Br  Br7  1  0.65698459  0.84301541  0.50000000  1
  Br  Br8  1  0.84301541  0.34301541  0.50000000  1
  Br  Br9  1  0.34301541  0.15698459  0.50000000  1
