# generated using pymatgen
data_AlZnH
_symmetry_space_group_name_H-M   'P 1'
_cell_length_a   2.83963460
_cell_length_b   2.83963460
_cell_length_c   5.07876024
_cell_angle_alpha   106.23393517
_cell_angle_beta   106.23393517
_cell_angle_gamma   90.00000000
_symmetry_Int_Tables_number   1
_chemical_formula_structural   AlZnH
_chemical_formula_sum   'Al1 Zn1 H1'
_cell_volume   37.61618547
_cell_formula_units_Z   1
loop_
 _symmetry_equiv_pos_site_id
 _symmetry_equiv_pos_as_xyz
  1  'x, y, z'
loop_
 _atom_site_type_symbol
 _atom_site_label
 _atom_site_symmetry_multiplicity
 _atom_site_fract_x
 _atom_site_fract_y
 _atom_site_fract_z
 _atom_site_occupancy
  H  H0  1  0.87527744  0.87527744  0.75055487  1
  Zn  Zn1  1  0.62761694  0.62761694  0.25523389  1
  Al  Al2  1  0.34710462  0.34710462  0.69420924  1
