# generated using pymatgen
data_Cs2CCl7
_symmetry_space_group_name_H-M   'P 1'
_cell_length_a   7.46951637
_cell_length_b   7.46951637
_cell_length_c   7.32018387
_cell_angle_alpha   59.32284399
_cell_angle_beta   59.32284399
_cell_angle_gamma   90.00000000
_symmetry_Int_Tables_number   1
_chemical_formula_structural   Cs2CCl7
_chemical_formula_sum   'Cs2 C1 Cl7'
_cell_volume   282.78232696
_cell_formula_units_Z   1
loop_
 _symmetry_equiv_pos_site_id
 _symmetry_equiv_pos_as_xyz
  1  'x, y, z'
loop_
 _atom_site_type_symbol
 _atom_site_label
 _atom_site_symmetry_multiplicity
 _atom_site_fract_x
 _atom_site_fract_y
 _atom_site_fract_z
 _atom_site_occupancy
  Cs  Cs0  1  0.75000000  0.25000000  0.50000000  1
  Cs  Cs1  1  0.25000000  0.75000000  0.50000000  1
  C  C2  1  0.50000000  0.50000000  0.00000000  1
  Cl  Cl3  1  0.00000000  0.00000000  0.00000000  1
  Cl  Cl4  1  0.24952313  0.24952313  0.50095374  1
  Cl  Cl5  1  0.75047687  0.75047687  0.49904626  1
  Cl  Cl6  1  0.30946742  0.30946742  0.00000000  1
  Cl  Cl7  1  0.69053258  0.69053258  0.00000000  1
  Cl  Cl8  1  0.69053258  0.30946742  0.00000000  1
  Cl  Cl9  1  0.30946742  0.69053258  0.00000000  1
