# generated using pymatgen
data_KBBr2
_symmetry_space_group_name_H-M   'P 1'
_cell_length_a   8.80046766
_cell_length_b   8.80046766
_cell_length_c   8.80046766
_cell_angle_alpha   33.22244563
_cell_angle_beta   33.22244556
_cell_angle_gamma   33.22244556
_symmetry_Int_Tables_number   1
_chemical_formula_structural   KBBr2
_chemical_formula_sum   'K1 B1 Br2'
_cell_volume   182.14213652
_cell_formula_units_Z   1
loop_
 _symmetry_equiv_pos_site_id
 _symmetry_equiv_pos_as_xyz
  1  'x, y, z'
loop_
 _atom_site_type_symbol
 _atom_site_label
 _atom_site_symmetry_multiplicity
 _atom_site_fract_x
 _atom_site_fract_y
 _atom_site_fract_z
 _atom_site_occupancy
  K  K0  1  0.50000000  0.50000000  0.50000000  1
  B  B1  1  0.00000000  0.00000000  0.00000000  1
  Br  Br2  1  0.90211227  0.90211227  0.90211227  1
  Br  Br3  1  0.09788773  0.09788773  0.09788773  1
