# generated using pymatgen
data_VIr5Rh2
_symmetry_space_group_name_H-M   'P 1'
_cell_length_a   6.61693996
_cell_length_b   6.61693996
_cell_length_c   7.19404474
_cell_angle_alpha   117.38001631
_cell_angle_beta   117.38001631
_cell_angle_gamma   90.00000000
_symmetry_Int_Tables_number   1
_chemical_formula_structural   VIr5Rh2
_chemical_formula_sum   'V2 Ir10 Rh4'
_cell_volume   239.26338989
_cell_formula_units_Z   2
loop_
 _symmetry_equiv_pos_site_id
 _symmetry_equiv_pos_as_xyz
  1  'x, y, z'
loop_
 _atom_site_type_symbol
 _atom_site_label
 _atom_site_symmetry_multiplicity
 _atom_site_fract_x
 _atom_site_fract_y
 _atom_site_fract_z
 _atom_site_occupancy
  V  V0  1  0.75000000  0.75000000  0.50000000  1
  V  V1  1  0.25000000  0.25000000  0.50000000  1
  Ir  Ir2  1  0.47726526  0.68363934  0.66090460  1
  Ir  Ir3  1  0.81636066  0.02273474  0.33909540  1
  Ir  Ir4  1  0.00000000  0.00000000  0.00000000  1
  Ir  Ir5  1  0.50000000  0.50000000  0.00000000  1
  Ir  Ir6  1  0.18363934  0.97726526  0.66090460  1
  Ir  Ir7  1  0.68363934  0.18363934  0.66090460  1
  Ir  Ir8  1  0.97726526  0.47726526  0.66090460  1
  Ir  Ir9  1  0.31636066  0.81636066  0.33909540  1
  Ir  Ir10  1  0.02273474  0.52273474  0.33909540  1
  Ir  Ir11  1  0.52273474  0.31636066  0.33909540  1
  Rh  Rh12  1  0.13932345  0.36067655  0.00000000  1
  Rh  Rh13  1  0.63932345  0.13932445  0.00000000  1
  Rh  Rh14  1  0.36067555  0.86067655  1.00000000  1
  Rh  Rh15  1  0.86067555  0.63932445  1.00000000  1
