# generated using pymatgen
data_Sc2P3
_symmetry_space_group_name_H-M   'P 1'
_cell_length_a   4.62068271
_cell_length_b   4.62068271
_cell_length_c   5.22591306
_cell_angle_alpha   90.00000000
_cell_angle_beta   90.00000000
_cell_angle_gamma   119.99999990
_symmetry_Int_Tables_number   1
_chemical_formula_structural   Sc2P3
_chemical_formula_sum   'Sc2 P3'
_cell_volume   96.62847120
_cell_formula_units_Z   1
loop_
 _symmetry_equiv_pos_site_id
 _symmetry_equiv_pos_as_xyz
  1  'x, y, z'
loop_
 _atom_site_type_symbol
 _atom_site_label
 _atom_site_symmetry_multiplicity
 _atom_site_fract_x
 _atom_site_fract_y
 _atom_site_fract_z
 _atom_site_occupancy
  Sc  Sc0  1  0.66666667  0.33333333  0.23498962  1
  Sc  Sc1  1  0.33333333  0.66666667  0.76501038  1
  P  P2  1  0.00000000  0.00000000  0.00000000  1
  P  P3  1  0.66666667  0.33333333  0.73106460  1
  P  P4  1  0.33333333  0.66666667  0.26893540  1
