# generated using pymatgen
data_MnSi2N
_symmetry_space_group_name_H-M   'P 1'
_cell_length_a   2.79789485
_cell_length_b   2.79789484
_cell_length_c   6.28761786
_cell_angle_alpha   90.00000000
_cell_angle_beta   90.00000000
_cell_angle_gamma   119.99999999
_symmetry_Int_Tables_number   1
_chemical_formula_structural   MnSi2N
_chemical_formula_sum   'Mn1 Si2 N1'
_cell_volume   42.62648746
_cell_formula_units_Z   1
loop_
 _symmetry_equiv_pos_site_id
 _symmetry_equiv_pos_as_xyz
  1  'x, y, z'
loop_
 _atom_site_type_symbol
 _atom_site_label
 _atom_site_symmetry_multiplicity
 _atom_site_fract_x
 _atom_site_fract_y
 _atom_site_fract_z
 _atom_site_occupancy
  Mn  Mn0  1  0.66667000  0.33333000  0.61594208  1
  Si  Si1  1  0.33333000  0.66667000  0.87456233  1
  Si  Si2  1  0.00000000  0.00000000  0.31458559  1
  N  N3  1  0.33333000  0.66667000  0.15749000  1
