# generated using pymatgen
data_Yb(GePd)2
_symmetry_space_group_name_H-M   'P 1'
_cell_length_a   4.31107895
_cell_length_b   4.31107907
_cell_length_c   5.94439125
_cell_angle_alpha   111.27980762
_cell_angle_beta   111.27980529
_cell_angle_gamma   90.09034403
_symmetry_Int_Tables_number   1
_chemical_formula_structural   Yb(GePd)2
_chemical_formula_sum   'Yb1 Ge2 Pd2'
_cell_volume   94.79039412
_cell_formula_units_Z   1
loop_
 _symmetry_equiv_pos_site_id
 _symmetry_equiv_pos_as_xyz
  1  'x, y, z'
loop_
 _atom_site_type_symbol
 _atom_site_label
 _atom_site_symmetry_multiplicity
 _atom_site_fract_x
 _atom_site_fract_y
 _atom_site_fract_z
 _atom_site_occupancy
  Ge  Ge0  1  0.62323420  0.62323419  0.24506940  1
  Ge  Ge1  1  0.37677400  0.37677396  0.75493069  1
  Yb  Yb2  1  0.00000380  0.00000383  0.99999997  1
  Pd  Pd3  1  0.74903486  0.25097316  0.49999996  1
  Pd  Pd4  1  0.25097314  0.74903486  0.49999997  1
