# generated using pymatgen
data_Pu3TeN3
_symmetry_space_group_name_H-M   'P 1'
_cell_length_a   6.65189854
_cell_length_b   6.65190566
_cell_length_c   8.37476996
_cell_angle_alpha   66.59953770
_cell_angle_beta   66.60095241
_cell_angle_gamma   60.00037885
_symmetry_Int_Tables_number   1
_chemical_formula_structural   Pu3TeN3
_chemical_formula_sum   'Pu6 Te2 N6'
_cell_volume   285.18608719
_cell_formula_units_Z   2
loop_
 _symmetry_equiv_pos_site_id
 _symmetry_equiv_pos_as_xyz
  1  'x, y, z'
loop_
 _atom_site_type_symbol
 _atom_site_label
 _atom_site_symmetry_multiplicity
 _atom_site_fract_x
 _atom_site_fract_y
 _atom_site_fract_z
 _atom_site_occupancy
  Pu  Pu0  1  0.44794571  0.76516327  0.68293166  1
  Pu  Pu1  1  0.76518627  0.10394183  0.68294048  1
  Pu  Pu2  1  0.10394305  0.44794176  0.68294230  1
  Pu  Pu3  1  0.89605695  0.55205824  0.31705770  1
  Pu  Pu4  1  0.23481373  0.89605817  0.31705952  1
  Pu  Pu5  1  0.55205429  0.23483673  0.31706834  1
  Te  Te6  1  0.66650298  0.66650719  0.00048801  1
  Te  Te7  1  0.33349702  0.33349281  0.99951199  1
  N  N8  1  0.20125293  0.54730434  0.38266305  1
  N  N9  1  0.86879077  0.20126244  0.38266509  1
  N  N10  1  0.54729734  0.86877764  0.38265724  1
  N  N11  1  0.45270266  0.13122236  0.61734276  1
  N  N12  1  0.13120923  0.79873756  0.61733491  1
  N  N13  1  0.79874707  0.45269566  0.61733695  1
