# generated using pymatgen
data_CaCu3
_symmetry_space_group_name_H-M   'P 1'
_cell_length_a   5.19556971
_cell_length_b   5.19557021
_cell_length_c   16.81319209
_cell_angle_alpha   90.00000000
_cell_angle_beta   90.00000000
_cell_angle_gamma   120.00000311
_symmetry_Int_Tables_number   1
_chemical_formula_structural   CaCu3
_chemical_formula_sum   'Ca6 Cu18'
_cell_volume   393.04944493
_cell_formula_units_Z   6
loop_
 _symmetry_equiv_pos_site_id
 _symmetry_equiv_pos_as_xyz
  1  'x, y, z'
loop_
 _atom_site_type_symbol
 _atom_site_label
 _atom_site_symmetry_multiplicity
 _atom_site_fract_x
 _atom_site_fract_y
 _atom_site_fract_z
 _atom_site_occupancy
  Ca  Ca0  1  0.66666700  0.33333300  0.53823608  1
  Ca  Ca1  1  0.33333300  0.66666700  0.03823608  1
  Ca  Ca2  1  0.33333300  0.66666700  0.46176392  1
  Ca  Ca3  1  0.66666700  0.33333300  0.96176392  1
  Ca  Ca4  1  0.66666700  0.33333300  0.75000000  1
  Ca  Ca5  1  0.33333300  0.66666700  0.25000000  1
  Cu  Cu6  1  0.33270340  0.16635120  0.12869629  1
  Cu  Cu7  1  0.83364780  0.16635120  0.12869629  1
  Cu  Cu8  1  0.83364780  0.66729560  0.12869629  1
  Cu  Cu9  1  0.66729660  0.83364880  0.62869629  1
  Cu  Cu10  1  0.16635220  0.83364880  0.62869629  1
  Cu  Cu11  1  0.16635220  0.33270440  0.62869629  1
  Cu  Cu12  1  0.16635220  0.83364880  0.87130371  1
  Cu  Cu13  1  0.66729660  0.83364880  0.87130371  1
  Cu  Cu14  1  0.16635220  0.33270440  0.87130371  1
  Cu  Cu15  1  0.83364780  0.16635120  0.37130371  1
  Cu  Cu16  1  0.33270340  0.16635120  0.37130371  1
  Cu  Cu17  1  0.83364780  0.66729560  0.37130371  1
  Cu  Cu18  1  0.66666700  0.33333300  0.25000000  1
  Cu  Cu19  1  0.33333300  0.66666700  0.75000000  1
  Cu  Cu20  1  0.00000000  0.00000000  0.25000000  1
  Cu  Cu21  1  0.00000000  0.00000000  0.75000000  1
  Cu  Cu22  1  0.00000000  0.00000000  0.00000000  1
  Cu  Cu23  1  0.00000000  0.00000000  0.50000000  1
