# generated using pymatgen
data_Ba4Pa3SeO12
_symmetry_space_group_name_H-M   'P 1'
_cell_length_a   7.85310778
_cell_length_b   7.85310778
_cell_length_c   7.85310778
_cell_angle_alpha   109.47122060
_cell_angle_beta   109.47122068
_cell_angle_gamma   109.47122068
_symmetry_Int_Tables_number   1
_chemical_formula_structural   Ba4Pa3SeO12
_chemical_formula_sum   'Ba4 Pa3 Se1 O12'
_cell_volume   372.82307406
_cell_formula_units_Z   1
loop_
 _symmetry_equiv_pos_site_id
 _symmetry_equiv_pos_as_xyz
  1  'x, y, z'
loop_
 _atom_site_type_symbol
 _atom_site_label
 _atom_site_symmetry_multiplicity
 _atom_site_fract_x
 _atom_site_fract_y
 _atom_site_fract_z
 _atom_site_occupancy
  Ba  Ba0  1  0.50000000  0.50000000  0.50000000  1
  Ba  Ba1  1  -0.00000000  -0.00000000  0.50000000  1
  Ba  Ba2  1  0.50000000  0.00000000  0.00000000  1
  Ba  Ba3  1  0.00000000  0.50000000  0.00000000  1
  Pa  Pa4  1  0.50000000  -0.00000000  0.50000000  1
  Pa  Pa5  1  0.50000000  0.50000000  0.00000000  1
  Pa  Pa6  1  -0.00000000  0.50000000  0.50000000  1
  Se  Se7  1  0.00000000  0.00000000  0.00000000  1
  O  O8  1  0.25000000  0.50000000  0.75000000  1
  O  O9  1  0.72325455  1.00000000  0.72325455  1
  O  O10  1  0.27674545  -0.00000000  0.27674545  1
  O  O11  1  0.75000000  0.50000000  0.25000000  1
  O  O12  1  0.72325455  0.72325455  1.00000000  1
  O  O13  1  0.27674545  0.27674545  0.00000000  1
  O  O14  1  0.75000000  0.25000000  0.50000000  1
  O  O15  1  0.25000000  0.75000000  0.50000000  1
  O  O16  1  0.50000000  0.25000000  0.75000000  1
  O  O17  1  1.00000000  0.72325455  0.72325455  1
  O  O18  1  0.50000000  0.75000000  0.25000000  1
  O  O19  1  -0.00000000  0.27674545  0.27674545  1
