# generated using pymatgen
data_PrNd(SmBi2)2
_symmetry_space_group_name_H-M   'P 1'
_cell_length_a   4.59437307
_cell_length_b   7.95205730
_cell_length_c   7.95357880
_cell_angle_alpha   70.53321227
_cell_angle_beta   89.99971635
_cell_angle_gamma   89.99968020
_symmetry_Int_Tables_number   1
_chemical_formula_structural   PrNd(SmBi2)2
_chemical_formula_sum   'Pr1 Nd1 Sm2 Bi4'
_cell_volume   273.97060169
_cell_formula_units_Z   1
loop_
 _symmetry_equiv_pos_site_id
 _symmetry_equiv_pos_as_xyz
  1  'x, y, z'
loop_
 _atom_site_type_symbol
 _atom_site_label
 _atom_site_symmetry_multiplicity
 _atom_site_fract_x
 _atom_site_fract_y
 _atom_site_fract_z
 _atom_site_occupancy
  Pr  Pr0  1  0.49999900  0.50000150  0.99999950  1
  Nd  Nd1  1  0.00000050  0.49999400  0.50000450  1
  Sm  Sm2  1  0.00000000  0.00000100  0.99999900  1
  Sm  Sm3  1  0.50000000  0.00000100  0.49999900  1
  Bi  Bi4  1  0.00000300  0.75453938  0.74757703  1
  Bi  Bi5  1  0.99999600  0.24546212  0.25242147  1
  Bi  Bi6  1  0.50000200  0.75397742  0.24954237  1
  Bi  Bi7  1  0.49999700  0.24602358  0.75045663  1
