# generated using pymatgen
data_CaCo2S
_symmetry_space_group_name_H-M   'P 1'
_cell_length_a   4.53565181
_cell_length_b   4.53565181
_cell_length_c   7.94137693
_cell_angle_alpha   73.40702491
_cell_angle_beta   73.40702491
_cell_angle_gamma   90.00000000
_symmetry_Int_Tables_number   1
_chemical_formula_structural   CaCo2S
_chemical_formula_sum   'Ca2 Co4 S2'
_cell_volume   149.45540826
_cell_formula_units_Z   2
loop_
 _symmetry_equiv_pos_site_id
 _symmetry_equiv_pos_as_xyz
  1  'x, y, z'
loop_
 _atom_site_type_symbol
 _atom_site_label
 _atom_site_symmetry_multiplicity
 _atom_site_fract_x
 _atom_site_fract_y
 _atom_site_fract_z
 _atom_site_occupancy
  Ca  Ca0  1  0.00000000  0.00000000  0.00000000  1
  Ca  Ca1  1  0.75000000  0.25000000  0.50000000  1
  Co  Co2  1  0.37503542  0.12500000  0.25000000  1
  Co  Co3  1  0.37496458  0.62500000  0.25000000  1
  Co  Co4  1  0.37500000  0.62496458  0.75000000  1
  Co  Co5  1  0.87500000  0.62503542  0.75000000  1
  S  S6  1  0.50000000  0.50000000  0.00000000  1
  S  S7  1  0.25000000  0.75000000  0.50000000  1
