# generated using pymatgen
data_CsNbSe3
_symmetry_space_group_name_H-M   'P 1'
_cell_length_a   15.97303688
_cell_length_b   10.44888810
_cell_length_c   10.44888810
_cell_angle_alpha   91.71727037
_cell_angle_beta   131.22014589
_cell_angle_gamma   48.77985411
_symmetry_Int_Tables_number   1
_chemical_formula_structural   CsNbSe3
_chemical_formula_sum   'Cs4 Nb4 Se12'
_cell_volume   690.30837412
_cell_formula_units_Z   4
loop_
 _symmetry_equiv_pos_site_id
 _symmetry_equiv_pos_as_xyz
  1  'x, y, z'
loop_
 _atom_site_type_symbol
 _atom_site_label
 _atom_site_symmetry_multiplicity
 _atom_site_fract_x
 _atom_site_fract_y
 _atom_site_fract_z
 _atom_site_occupancy
  Cs  Cs0  1  0.10575898  0.49059913  0.32470182  1
  Cs  Cs1  1  0.39424102  0.82470182  0.99059913  1
  Cs  Cs2  1  0.89424102  0.50940087  0.67529818  1
  Cs  Cs3  1  0.60575898  0.17529818  0.00940087  1
  Nb  Nb4  1  0.75000000  0.17488348  0.67488348  1
  Nb  Nb5  1  0.25000000  0.82511652  0.32511652  1
  Nb  Nb6  1  0.75000000  0.47439225  0.97439225  1
  Nb  Nb7  1  0.25000000  0.52560775  0.02560775  1
  Se  Se8  1  0.40377244  0.43079208  0.43337635  1
  Se  Se9  1  0.09622756  0.93337635  0.93079208  1
  Se  Se10  1  0.59622756  0.56920792  0.56662365  1
  Se  Se11  1  0.90377244  0.06662365  0.06920792  1
  Se  Se12  1  0.08719015  0.20249579  0.16699116  1
  Se  Se13  1  0.41280985  0.66699116  0.70249579  1
  Se  Se14  1  0.91280985  0.79750421  0.83300884  1
  Se  Se15  1  0.58719015  0.33300884  0.29750421  1
  Se  Se16  1  0.59255064  0.83720653  0.81531671  1
  Se  Se17  1  0.90744936  0.31531671  0.33720653  1
  Se  Se18  1  0.40744936  0.16279347  0.18468329  1
  Se  Se19  1  0.09255064  0.68468329  0.66279347  1
