# generated using pymatgen
data_SrSiIr2
_symmetry_space_group_name_H-M   'P 1'
_cell_length_a   4.14887805
_cell_length_b   4.14887805
_cell_length_c   9.41518426
_cell_angle_alpha   89.99999373
_cell_angle_beta   90.00000000
_cell_angle_gamma   90.00000000
_symmetry_Int_Tables_number   1
_chemical_formula_structural   SrSiIr2
_chemical_formula_sum   'Sr2 Si2 Ir4'
_cell_volume   162.06534683
_cell_formula_units_Z   2
loop_
 _symmetry_equiv_pos_site_id
 _symmetry_equiv_pos_as_xyz
  1  'x, y, z'
loop_
 _atom_site_type_symbol
 _atom_site_label
 _atom_site_symmetry_multiplicity
 _atom_site_fract_x
 _atom_site_fract_y
 _atom_site_fract_z
 _atom_site_occupancy
  Sr  Sr0  1  0.50000000  0.00000000  0.20710257  1
  Sr  Sr1  1  0.00000000  0.50000000  0.79289743  1
  Si  Si2  1  0.50000000  0.00000000  0.63231865  1
  Si  Si3  1  0.00000000  0.50000000  0.36768135  1
  Ir  Ir4  1  0.50000000  0.00000000  0.87370470  1
  Ir  Ir5  1  0.00000000  0.50000000  0.12629530  1
  Ir  Ir6  1  0.00000000  0.00000000  0.50000000  1
  Ir  Ir7  1  0.50000000  0.50000000  0.50000000  1
