# generated using pymatgen
data_EuNi9Ge4
_symmetry_space_group_name_H-M   'P 1'
_cell_length_a   8.13384412
_cell_length_b   8.13384412
_cell_length_c   8.13384412
_cell_angle_alpha   118.03917562
_cell_angle_beta   118.03917562
_cell_angle_gamma   93.43118424
_symmetry_Int_Tables_number   1
_chemical_formula_structural   EuNi9Ge4
_chemical_formula_sum   'Eu2 Ni18 Ge8'
_cell_volume   391.03484487
_cell_formula_units_Z   2
loop_
 _symmetry_equiv_pos_site_id
 _symmetry_equiv_pos_as_xyz
  1  'x, y, z'
loop_
 _atom_site_type_symbol
 _atom_site_label
 _atom_site_symmetry_multiplicity
 _atom_site_fract_x
 _atom_site_fract_y
 _atom_site_fract_z
 _atom_site_occupancy
  Eu  Eu0  1  0.75000000  0.75000000  0.00000000  1
  Eu  Eu1  1  0.25000000  0.25000000  0.00000000  1
  Ni  Ni2  1  0.30234692  0.80234692  0.86769215  1
  Ni  Ni3  1  0.69765308  0.19765308  0.13230785  1
  Ni  Ni4  1  0.93465477  0.43465477  0.13230785  1
  Ni  Ni5  1  0.80234692  0.93465477  0.50000000  1
  Ni  Ni6  1  0.56534523  0.69765308  0.50000000  1
  Ni  Ni7  1  0.06534523  0.56534523  0.86769215  1
  Ni  Ni8  1  0.19765308  0.06534523  0.50000000  1
  Ni  Ni9  1  0.43465477  0.30234692  0.50000000  1
  Ni  Ni10  1  0.00000000  0.50000000  0.50000000  1
  Ni  Ni11  1  0.50000000  0.00000000  0.50000000  1
  Ni  Ni12  1  0.79240749  0.29240749  0.72650271  1
  Ni  Ni13  1  0.20759251  0.70759251  0.27349729  1
  Ni  Ni14  1  0.56590479  0.06590479  0.27349729  1
  Ni  Ni15  1  0.29240749  0.56590479  0.50000000  1
  Ni  Ni16  1  0.93409521  0.20759251  0.50000000  1
  Ni  Ni17  1  0.43409521  0.93409521  0.72650271  1
  Ni  Ni18  1  0.70759251  0.43409521  0.50000000  1
  Ni  Ni19  1  0.06590479  0.79240749  0.50000000  1
  Ge  Ge20  1  0.71886197  0.55409098  0.27295295  1
  Ge  Ge21  1  0.28113803  0.44590902  0.72704705  1
  Ge  Ge22  1  0.55409098  0.28113803  0.83522901  1
  Ge  Ge23  1  0.21886197  0.94590902  0.16477099  1
  Ge  Ge24  1  0.44590902  0.71886197  0.16477099  1
  Ge  Ge25  1  0.78113803  0.05409098  0.83522901  1
  Ge  Ge26  1  0.05409098  0.21886197  0.27295295  1
  Ge  Ge27  1  0.94590902  0.78113803  0.72704705  1
