# generated using pymatgen
data_Ba2TaRu
_symmetry_space_group_name_H-M   'P 1'
_cell_length_a   3.37800191
_cell_length_b   5.25110135
_cell_length_c   6.01808235
_cell_angle_alpha   90.00000000
_cell_angle_beta   90.00000000
_cell_angle_gamma   90.00000000
_symmetry_Int_Tables_number   1
_chemical_formula_structural   Ba2TaRu
_chemical_formula_sum   'Ba2 Ta1 Ru1'
_cell_volume   106.75013123
_cell_formula_units_Z   1
loop_
 _symmetry_equiv_pos_site_id
 _symmetry_equiv_pos_as_xyz
  1  'x, y, z'
loop_
 _atom_site_type_symbol
 _atom_site_label
 _atom_site_symmetry_multiplicity
 _atom_site_fract_x
 _atom_site_fract_y
 _atom_site_fract_z
 _atom_site_occupancy
  Ba  Ba0  1  0.00000000  0.00000000  0.00319947  1
  Ba  Ba1  1  0.00000000  0.00000000  0.49680053  1
  Ru  Ru2  1  0.50000000  0.50000000  0.25000000  1
  Ta  Ta3  1  0.50000000  0.50000000  0.75000000  1
