# generated using pymatgen
data_Nd6InSi2
_symmetry_space_group_name_H-M   'P 1'
_cell_length_a   8.83554646
_cell_length_b   8.83554649
_cell_length_c   8.83554716
_cell_angle_alpha   106.30540451
_cell_angle_beta   109.86450999
_cell_angle_gamma   112.29935989
_symmetry_Int_Tables_number   1
_chemical_formula_structural   Nd6InSi2
_chemical_formula_sum   'Nd12 In2 Si4'
_cell_volume   529.51907271
_cell_formula_units_Z   2
loop_
 _symmetry_equiv_pos_site_id
 _symmetry_equiv_pos_as_xyz
  1  'x, y, z'
loop_
 _atom_site_type_symbol
 _atom_site_label
 _atom_site_symmetry_multiplicity
 _atom_site_fract_x
 _atom_site_fract_y
 _atom_site_fract_z
 _atom_site_occupancy
  Nd  Nd0  1  0.53836010  0.72327352  0.81508658  1
  Nd  Nd1  1  0.46163990  0.27672648  0.18491342  1
  Nd  Nd2  1  0.09181205  0.27672648  0.81508658  1
  Nd  Nd3  1  0.90818695  0.72327352  0.18491342  1
  Nd  Nd4  1  0.79446421  0.76023088  0.55469509  1
  Nd  Nd5  1  0.20553579  0.23976912  0.44530491  1
  Nd  Nd6  1  0.20553479  0.76023088  0.96576568  1
  Nd  Nd7  1  0.79446521  0.23976912  0.03423432  1
  Nd  Nd8  1  0.70538532  0.38540049  0.68001618  1
  Nd  Nd9  1  0.29461468  0.61459951  0.31998382  1
  Nd  Nd10  1  0.29461468  0.97463086  0.68001618  1
  Nd  Nd11  1  0.70538532  0.02536914  0.31998382  1
  In  In12  1  0.00000000  0.50000000  0.50000000  1
  In  In13  1  0.00000000  0.00000000  0.00000000  1
  Si  Si14  1  0.50000000  0.38769711  0.88769711  1
  Si  Si15  1  0.50000000  0.61230289  0.11230289  1
  Si  Si16  1  0.62528111  1.00000000  0.62528111  1
  Si  Si17  1  0.37471889  0.00000000  0.37471889  1
