# generated using pymatgen
data_LaAlOs2C
_symmetry_space_group_name_H-M   'P 1'
_cell_length_a   4.17348337
_cell_length_b   5.95333154
_cell_length_c   7.29700130
_cell_angle_alpha   90.00000000
_cell_angle_beta   90.00000000
_cell_angle_gamma   110.51891746
_symmetry_Int_Tables_number   1
_chemical_formula_structural   LaAlOs2C
_chemical_formula_sum   'La2 Al2 Os4 C2'
_cell_volume   169.79979709
_cell_formula_units_Z   2
loop_
 _symmetry_equiv_pos_site_id
 _symmetry_equiv_pos_as_xyz
  1  'x, y, z'
loop_
 _atom_site_type_symbol
 _atom_site_label
 _atom_site_symmetry_multiplicity
 _atom_site_fract_x
 _atom_site_fract_y
 _atom_site_fract_z
 _atom_site_occupancy
  La  La0  1  0.44889560  0.89779119  0.75000000  1
  La  La1  1  0.55110440  0.10220881  0.25000000  1
  Al  Al2  1  0.72752300  0.45504600  0.75000000  1
  Al  Al3  1  0.27247700  0.54495400  0.25000000  1
  Os  Os4  1  0.16607615  0.33215229  0.93809435  1
  Os  Os5  1  0.83392385  0.66784771  0.06190565  1
  Os  Os6  1  0.16607615  0.33215229  0.56190565  1
  Os  Os7  1  0.83392385  0.66784771  0.43809435  1
  C  C8  1  0.00000000  0.00000000  0.00000000  1
  C  C9  1  0.00000000  0.00000000  0.50000000  1
