# generated using pymatgen
data_NdSmCoRu
_symmetry_space_group_name_H-M   'P 1'
_cell_length_a   4.25818418
_cell_length_b   4.07792317
_cell_length_c   5.70222325
_cell_angle_alpha   90.00000000
_cell_angle_beta   111.92417866
_cell_angle_gamma   90.00000000
_symmetry_Int_Tables_number   1
_chemical_formula_structural   NdSmCoRu
_chemical_formula_sum   'Nd1 Sm1 Co1 Ru1'
_cell_volume   91.85553193
_cell_formula_units_Z   1
loop_
 _symmetry_equiv_pos_site_id
 _symmetry_equiv_pos_as_xyz
  1  'x, y, z'
loop_
 _atom_site_type_symbol
 _atom_site_label
 _atom_site_symmetry_multiplicity
 _atom_site_fract_x
 _atom_site_fract_y
 _atom_site_fract_z
 _atom_site_occupancy
  Nd  Nd0  1  0.85419313  0.50000000  0.70838627  1
  Sm  Sm1  1  0.14397076  0.00000000  0.28794153  1
  Co  Co2  1  0.44529766  0.00000000  0.89059532  1
  Ru  Ru3  1  0.55653944  0.50000000  0.11307888  1
