# generated using pymatgen
data_CeHIr
_symmetry_space_group_name_H-M   'P 1'
_cell_length_a   3.93338099
_cell_length_b   3.93665813
_cell_length_c   6.90477856
_cell_angle_alpha   90.00000000
_cell_angle_beta   106.49431209
_cell_angle_gamma   90.00000000
_symmetry_Int_Tables_number   1
_chemical_formula_structural   CeHIr
_chemical_formula_sum   'Ce2 H2 Ir2'
_cell_volume   102.51636618
_cell_formula_units_Z   2
loop_
 _symmetry_equiv_pos_site_id
 _symmetry_equiv_pos_as_xyz
  1  'x, y, z'
loop_
 _atom_site_type_symbol
 _atom_site_label
 _atom_site_symmetry_multiplicity
 _atom_site_fract_x
 _atom_site_fract_y
 _atom_site_fract_z
 _atom_site_occupancy
  H  H0  1  0.22909710  0.25000000  0.95934753  1
  H  H1  1  0.77086376  0.75000000  0.04065703  1
  Ir  Ir2  1  0.74755759  0.25000000  0.99486251  1
  Ir  Ir3  1  0.25242118  0.75000000  0.00514277  1
  Ce  Ce4  1  0.41319532  0.25000000  0.32325004  1
  Ce  Ce5  1  0.58678005  0.75000000  0.67674012  1
