# generated using pymatgen
data_TaCl3
_symmetry_space_group_name_H-M   'P 1'
_cell_length_a   3.03590145
_cell_length_b   3.03590145
_cell_length_c   8.59804662
_cell_angle_alpha   90.00000000
_cell_angle_beta   90.00000000
_cell_angle_gamma   90.00000000
_symmetry_Int_Tables_number   1
_chemical_formula_structural   TaCl3
_chemical_formula_sum   'Ta1 Cl3'
_cell_volume   79.24559577
_cell_formula_units_Z   1
loop_
 _symmetry_equiv_pos_site_id
 _symmetry_equiv_pos_as_xyz
  1  'x, y, z'
loop_
 _atom_site_type_symbol
 _atom_site_label
 _atom_site_symmetry_multiplicity
 _atom_site_fract_x
 _atom_site_fract_y
 _atom_site_fract_z
 _atom_site_occupancy
  Cl  Cl0  1  0.00000000  0.00000000  0.92767668  1
  Cl  Cl1  1  0.50000000  0.50000000  0.25000000  1
  Cl  Cl2  1  0.00000000  0.00000000  0.57232332  1
  Ta  Ta3  1  0.50000000  0.50000000  0.75000000  1
