# generated using pymatgen
data_SrTl2
_symmetry_space_group_name_H-M   'P 1'
_cell_length_a   21.58829900
_cell_length_b   21.58829899
_cell_length_c   4.26603101
_cell_angle_alpha   90.00000000
_cell_angle_beta   90.00000000
_cell_angle_gamma   120.00000001
_symmetry_Int_Tables_number   1
_chemical_formula_structural   SrTl2
_chemical_formula_sum   'Sr4 Tl8'
_cell_volume   1721.83482913
_cell_formula_units_Z   4
loop_
 _symmetry_equiv_pos_site_id
 _symmetry_equiv_pos_as_xyz
  1  'x, y, z'
loop_
 _atom_site_type_symbol
 _atom_site_label
 _atom_site_symmetry_multiplicity
 _atom_site_fract_x
 _atom_site_fract_y
 _atom_site_fract_z
 _atom_site_occupancy
  Sr  Sr0  1  0.61183402  0.46765267  0.95774138  1
  Sr  Sr1  1  0.38817756  0.53239160  0.45817767  1
  Sr  Sr2  1  0.37452286  0.30721698  0.95839589  1
  Sr  Sr3  1  0.62542855  0.69278474  0.45841216  1
  Tl  Tl4  1  0.83473252  0.76275980  0.45864079  1
  Tl  Tl5  1  0.16532062  0.23719818  0.95883608  1
  Tl  Tl6  1  0.27967950  0.34450345  0.45854463  1
  Tl  Tl7  1  0.72030954  0.65551605  0.95830896  1
  Tl  Tl8  1  0.75672537  0.56583840  0.45788357  1
  Tl  Tl9  1  0.24327654  0.43414652  0.95826883  1
  Tl  Tl10  1  0.52428043  0.56437000  0.95844727  1
  Tl  Tl11  1  0.47571248  0.43562161  0.45834178  1
