# generated using pymatgen
data_CoBi2SbO8
_symmetry_space_group_name_H-M   'P 1'
_cell_length_a   4.87438295
_cell_length_b   4.87399734
_cell_length_c   6.74807878
_cell_angle_alpha   89.99999382
_cell_angle_beta   89.99989837
_cell_angle_gamma   90.24651097
_symmetry_Int_Tables_number   1
_chemical_formula_structural   CoBi2SbO8
_chemical_formula_sum   'Co1 Bi2 Sb1 O8'
_cell_volume   160.31754664
_cell_formula_units_Z   1
loop_
 _symmetry_equiv_pos_site_id
 _symmetry_equiv_pos_as_xyz
  1  'x, y, z'
loop_
 _atom_site_type_symbol
 _atom_site_label
 _atom_site_symmetry_multiplicity
 _atom_site_fract_x
 _atom_site_fract_y
 _atom_site_fract_z
 _atom_site_occupancy
  Co  Co0  1  -0.00000000  0.00000000  0.50000000  1
  Bi  Bi1  1  0.49999967  0.49999911  0.74424120  1
  Bi  Bi2  1  0.50000033  0.50000089  0.25575880  1
  Sb  Sb3  1  0.00000000  0.00000000  0.00000000  1
  O  O4  1  0.18228249  0.81773914  0.23585155  1
  O  O5  1  0.70463948  0.70460840  0.99999964  1
  O  O6  1  0.81771506  0.18225917  0.23585169  1
  O  O7  1  0.81771751  0.18226086  0.76414845  1
  O  O8  1  0.29536052  0.29539160  0.00000036  1
  O  O9  1  0.18228494  0.81774083  0.76414831  1
  O  O10  1  0.70903454  0.70900183  0.50000096  1
  O  O11  1  0.29096546  0.29099817  0.49999904  1
