# generated using pymatgen
data_Ho(Tc2P)2
_symmetry_space_group_name_H-M   'P 1'
_cell_length_a   4.00605660
_cell_length_b   4.04561107
_cell_length_c   7.05194424
_cell_angle_alpha   106.66908485
_cell_angle_beta   90.00000000
_cell_angle_gamma   90.00000000
_symmetry_Int_Tables_number   1
_chemical_formula_structural   Ho(Tc2P)2
_chemical_formula_sum   'Ho1 Tc4 P2'
_cell_volume   109.48770350
_cell_formula_units_Z   1
loop_
 _symmetry_equiv_pos_site_id
 _symmetry_equiv_pos_as_xyz
  1  'x, y, z'
loop_
 _atom_site_type_symbol
 _atom_site_label
 _atom_site_symmetry_multiplicity
 _atom_site_fract_x
 _atom_site_fract_y
 _atom_site_fract_z
 _atom_site_occupancy
  Ho  Ho0  1  0.00000000  0.00000000  0.00000000  1
  Tc  Tc1  1  0.50000000  0.81781999  0.63563998  1
  Tc  Tc2  1  0.00000000  0.69031469  0.38062938  1
  Tc  Tc3  1  0.50000000  0.18218001  0.36436002  1
  Tc  Tc4  1  0.00000000  0.30968531  0.61937062  1
  P  P5  1  0.50000000  0.58576926  0.17153953  1
  P  P6  1  0.50000000  0.41423074  0.82846047  1
