# generated using pymatgen
data_LiSiBrF
_symmetry_space_group_name_H-M   'P 1'
_cell_length_a   6.01106756
_cell_length_b   3.33272293
_cell_length_c   9.68751453
_cell_angle_alpha   90.00000000
_cell_angle_beta   118.36714151
_cell_angle_gamma   90.00000000
_symmetry_Int_Tables_number   1
_chemical_formula_structural   LiSiBrF
_chemical_formula_sum   'Li2 Si2 Br2 F2'
_cell_volume   170.76818546
_cell_formula_units_Z   2
loop_
 _symmetry_equiv_pos_site_id
 _symmetry_equiv_pos_as_xyz
  1  'x, y, z'
loop_
 _atom_site_type_symbol
 _atom_site_label
 _atom_site_symmetry_multiplicity
 _atom_site_fract_x
 _atom_site_fract_y
 _atom_site_fract_z
 _atom_site_occupancy
  Li  Li0  1  0.93795722  0.00000000  0.59554769  1
  Li  Li1  1  0.93795722  0.50000000  0.09554769  1
  Si  Si2  1  0.21495409  0.00000000  0.91770128  1
  Si  Si3  1  0.21495409  0.50000000  0.41770128  1
  Br  Br4  1  0.62706516  0.00000000  0.14366639  1
  Br  Br5  1  0.62706516  0.50000000  0.64366639  1
  F  F6  1  0.04784354  0.00000000  0.02922464  1
  F  F7  1  0.04784354  0.50000000  0.52922464  1
