# generated using pymatgen
data_Rb2Ag2GeI6
_symmetry_space_group_name_H-M   'P 1'
_cell_length_a   8.61466315
_cell_length_b   8.67496663
_cell_length_c   8.49410924
_cell_angle_alpha   116.66653996
_cell_angle_beta   90.00000000
_cell_angle_gamma   119.77031349
_symmetry_Int_Tables_number   1
_chemical_formula_structural   Rb2Ag2GeI6
_chemical_formula_sum   'Rb2 Ag2 Ge1 I6'
_cell_volume   471.64048869
_cell_formula_units_Z   1
loop_
 _symmetry_equiv_pos_site_id
 _symmetry_equiv_pos_as_xyz
  1  'x, y, z'
loop_
 _atom_site_type_symbol
 _atom_site_label
 _atom_site_symmetry_multiplicity
 _atom_site_fract_x
 _atom_site_fract_y
 _atom_site_fract_z
 _atom_site_occupancy
  Rb  Rb0  1  0.74152094  0.48304288  0.20594418  1
  Rb  Rb1  1  0.25847906  0.51695712  0.79405582  1
  Ag  Ag2  1  0.94212848  0.88425795  0.79210273  1
  Ag  Ag3  1  0.05787152  0.11574205  0.20789727  1
  Ge  Ge4  1  0.50000000  -0.00000000  0.50000000  1
  I  I5  1  0.72770459  0.45540817  0.62519031  1
  I  I6  1  0.20566768  0.89146249  0.20143169  1
  I  I7  1  0.31420619  0.10853751  0.79856831  1
  I  I8  1  0.79433232  0.10853751  0.79856831  1
  I  I9  1  0.68579381  0.89146249  0.20143169  1
  I  I10  1  0.27229541  0.54459183  0.37480969  1
