# generated using pymatgen
data_NaS
_symmetry_space_group_name_H-M   'P 1'
_cell_length_a   7.03773364
_cell_length_b   16.67544271
_cell_length_c   7.42489565
_cell_angle_alpha   90.00000000
_cell_angle_beta   90.00000000
_cell_angle_gamma   90.00000000
_symmetry_Int_Tables_number   1
_chemical_formula_structural   NaS
_chemical_formula_sum   'Na16 S16'
_cell_volume   871.36588537
_cell_formula_units_Z   16
loop_
 _symmetry_equiv_pos_site_id
 _symmetry_equiv_pos_as_xyz
  1  'x, y, z'
loop_
 _atom_site_type_symbol
 _atom_site_label
 _atom_site_symmetry_multiplicity
 _atom_site_fract_x
 _atom_site_fract_y
 _atom_site_fract_z
 _atom_site_occupancy
  Na  Na0  1  0.25928996  0.00000000  0.00000000  1
  Na  Na1  1  0.74071004  0.00000000  0.00000000  1
  Na  Na2  1  0.99071004  0.75000000  0.25000000  1
  Na  Na3  1  0.50928996  0.75000000  0.25000000  1
  Na  Na4  1  0.25928996  0.50000000  0.50000000  1
  Na  Na5  1  0.74071004  0.50000000  0.50000000  1
  Na  Na6  1  0.99071004  0.25000000  0.75000000  1
  Na  Na7  1  0.50928996  0.25000000  0.75000000  1
  Na  Na8  1  0.75928996  0.00000000  0.50000000  1
  Na  Na9  1  0.24071004  0.00000000  0.50000000  1
  Na  Na10  1  0.49071004  0.75000000  0.75000000  1
  Na  Na11  1  0.00928996  0.75000000  0.75000000  1
  Na  Na12  1  0.75928996  0.50000000  0.00000000  1
  Na  Na13  1  0.24071004  0.50000000  0.00000000  1
  Na  Na14  1  0.49071004  0.25000000  0.25000000  1
  Na  Na15  1  0.00928996  0.25000000  0.25000000  1
  S  S16  1  0.00000000  0.63195520  0.00000000  1
  S  S17  1  0.00000000  0.36804480  0.00000000  1
  S  S18  1  0.25000000  0.11804480  0.25000000  1
  S  S19  1  0.25000000  0.38195520  0.25000000  1
  S  S20  1  0.00000000  0.13195520  0.50000000  1
  S  S21  1  0.00000000  0.86804480  0.50000000  1
  S  S22  1  0.25000000  0.61804480  0.75000000  1
  S  S23  1  0.25000000  0.88195520  0.75000000  1
  S  S24  1  0.50000000  0.63195520  0.50000000  1
  S  S25  1  0.50000000  0.36804480  0.50000000  1
  S  S26  1  0.75000000  0.11804480  0.75000000  1
  S  S27  1  0.75000000  0.38195520  0.75000000  1
  S  S28  1  0.50000000  0.13195520  0.00000000  1
  S  S29  1  0.50000000  0.86804480  0.00000000  1
  S  S30  1  0.75000000  0.61804480  0.25000000  1
  S  S31  1  0.75000000  0.88195520  0.25000000  1
