# generated using pymatgen
data_Ag(BiPb2)3
_symmetry_space_group_name_H-M   'P 1'
_cell_length_a   6.07035941
_cell_length_b   9.47218459
_cell_length_c   12.54991891
_cell_angle_alpha   116.36750044
_cell_angle_beta   71.89201750
_cell_angle_gamma   100.37086489
_symmetry_Int_Tables_number   1
_chemical_formula_structural   Ag(BiPb2)3
_chemical_formula_sum   'Ag2 Bi6 Pb12'
_cell_volume   613.77209414
_cell_formula_units_Z   2
loop_
 _symmetry_equiv_pos_site_id
 _symmetry_equiv_pos_as_xyz
  1  'x, y, z'
loop_
 _atom_site_type_symbol
 _atom_site_label
 _atom_site_symmetry_multiplicity
 _atom_site_fract_x
 _atom_site_fract_y
 _atom_site_fract_z
 _atom_site_occupancy
  Ag  Ag0  1  0.27910682  0.96729840  0.59122853  1
  Ag  Ag1  1  0.72089318  0.03270160  0.40877147  1
  Bi  Bi2  1  0.22815804  0.58310895  0.41674391  1
  Bi  Bi3  1  0.77184196  0.41689105  0.58325609  1
  Bi  Bi4  1  0.26827087  0.32355269  0.78554452  1
  Bi  Bi5  1  0.73172913  0.67644731  0.21445548  1
  Bi  Bi6  1  0.27527697  0.76445777  0.00805378  1
  Bi  Bi7  1  0.72472303  0.23554223  0.99194622  1
  Pb  Pb8  1  0.23395502  0.45433353  0.09281145  1
  Pb  Pb9  1  0.76604498  0.54566647  0.90718855  1
  Pb  Pb10  1  0.25681938  0.15648517  0.19573876  1
  Pb  Pb11  1  0.74318062  0.84351483  0.80426124  1
  Pb  Pb12  1  0.24820855  0.64532414  0.70375242  1
  Pb  Pb13  1  0.75179145  0.35467586  0.29624758  1
  Pb  Pb14  1  0.28503534  0.23895482  0.48885457  1
  Pb  Pb15  1  0.71496466  0.76104518  0.51114543  1
  Pb  Pb16  1  0.22050306  0.86150869  0.31753335  1
  Pb  Pb17  1  0.77949694  0.13849131  0.68246665  1
  Pb  Pb18  1  0.24258198  0.04177166  0.88099219  1
  Pb  Pb19  1  0.75741802  0.95822834  0.11900781  1
