# generated using pymatgen
data_VAs(PbO3)2
_symmetry_space_group_name_H-M   'P 1'
_cell_length_a   5.73640542
_cell_length_b   5.73640542
_cell_length_c   10.14689270
_cell_angle_alpha   73.58049098
_cell_angle_beta   73.58049100
_cell_angle_gamma   60.00000000
_symmetry_Int_Tables_number   1
_chemical_formula_structural   VAs(PbO3)2
_chemical_formula_sum   'V2 As2 Pb4 O12'
_cell_volume   273.32675672
_cell_formula_units_Z   2
loop_
 _symmetry_equiv_pos_site_id
 _symmetry_equiv_pos_as_xyz
  1  'x, y, z'
loop_
 _atom_site_type_symbol
 _atom_site_label
 _atom_site_symmetry_multiplicity
 _atom_site_fract_x
 _atom_site_fract_y
 _atom_site_fract_z
 _atom_site_occupancy
  V  V0  1  0.59364359  0.59364359  0.21906823  1
  V  V1  1  0.40635641  0.40635641  0.78093177  1
  As  As2  1  0.00000000  0.00000000  0.00000000  1
  As  As3  1  0.50000000  0.50000000  0.50000000  1
  Pb  Pb4  1  0.87590194  0.87590194  0.37229519  1
  Pb  Pb5  1  0.12409806  0.12409806  0.62770481  1
  Pb  Pb6  1  0.73151169  0.73151169  0.80546593  1
  Pb  Pb7  1  0.26848831  0.26848831  0.19453407  1
  O  O8  1  0.83908710  0.39034110  0.38023071  1
  O  O9  1  0.39034110  0.83908710  0.38023071  1
  O  O10  1  0.39034110  0.39034110  0.38023071  1
  O  O11  1  0.16091290  0.60965890  0.61976929  1
  O  O12  1  0.60965890  0.16091290  0.61976929  1
  O  O13  1  0.60965890  0.60965890  0.61976929  1
  O  O14  1  0.71951946  0.21066061  0.85915833  1
  O  O15  1  0.21066061  0.71951946  0.85915833  1
  O  O16  1  0.21066061  0.21066061  0.85915833  1
  O  O17  1  0.28048054  0.78933939  0.14084167  1
  O  O18  1  0.78933939  0.28048054  0.14084167  1
  O  O19  1  0.78933939  0.78933939  0.14084167  1
