# generated using pymatgen
data_CaGdRh
_symmetry_space_group_name_H-M   'P 1'
_cell_length_a   3.47138577
_cell_length_b   3.47138577
_cell_length_c   7.04727013
_cell_angle_alpha   104.25825543
_cell_angle_beta   104.25825543
_cell_angle_gamma   90.00000000
_symmetry_Int_Tables_number   1
_chemical_formula_structural   CaGdRh
_chemical_formula_sum   'Ca1 Gd1 Rh1'
_cell_volume   79.60529241
_cell_formula_units_Z   1
loop_
 _symmetry_equiv_pos_site_id
 _symmetry_equiv_pos_as_xyz
  1  'x, y, z'
loop_
 _atom_site_type_symbol
 _atom_site_label
 _atom_site_symmetry_multiplicity
 _atom_site_fract_x
 _atom_site_fract_y
 _atom_site_fract_z
 _atom_site_occupancy
  Ca  Ca0  1  0.03432531  0.03432531  0.06865063  1
  Gd  Gd1  1  0.28984479  0.28984479  0.57968959  1
  Rh  Rh2  1  0.67582989  0.67582989  0.35165979  1
