# generated using pymatgen
data_Li4MnCo2O7
_symmetry_space_group_name_H-M   'P 1'
_cell_length_a   2.87318074
_cell_length_b   5.04321897
_cell_length_c   16.58117019
_cell_angle_alpha   87.97648816
_cell_angle_beta   84.20176342
_cell_angle_gamma   90.26616705
_symmetry_Int_Tables_number   1
_chemical_formula_structural   Li4MnCo2O7
_chemical_formula_sum   'Li8 Mn2 Co4 O14'
_cell_volume   238.87604409
_cell_formula_units_Z   2
loop_
 _symmetry_equiv_pos_site_id
 _symmetry_equiv_pos_as_xyz
  1  'x, y, z'
loop_
 _atom_site_type_symbol
 _atom_site_label
 _atom_site_symmetry_multiplicity
 _atom_site_fract_x
 _atom_site_fract_y
 _atom_site_fract_z
 _atom_site_occupancy
  Li  Li0  1  0.94740224  0.63884984  0.14624118  1
  Li  Li1  1  0.37064498  0.77290052  0.28679927  1
  Li  Li2  1  0.78126801  0.93594915  0.42788784  1
  Li  Li3  1  0.20996185  0.06598472  0.57196638  1
  Li  Li4  1  0.63000190  0.21487072  0.71216945  1
  Li  Li5  1  0.04377952  0.36010012  0.85344423  1
  Li  Li6  1  0.49840555  0.50561526  0.99782551  1
  Li  Li7  1  0.87073824  0.28265343  0.29109661  1
  Mn  Mn8  1  0.00213561  0.99992679  0.99724577  1
  Mn  Mn9  1  0.45504410  0.15304311  0.14959445  1
  Co  Co10  1  0.29905414  0.42498275  0.42850181  1
  Co  Co11  1  0.71169082  0.56964824  0.57197877  1
  Co  Co12  1  0.13017477  0.71403960  0.71214110  1
  Co  Co13  1  0.54823776  0.85732162  0.85246367  1
  O  O14  1  0.51254913  0.84389081  0.07069207  1
  O  O15  1  0.91567730  0.98048169  0.20864462  1
  O  O16  1  0.31727501  0.13549594  0.36888173  1
  O  O17  1  0.75931621  0.28403839  0.49807259  1
  O  O18  1  0.17221962  0.42060814  0.63917780  1
  O  O19  1  0.59054545  0.56776530  0.77903163  1
  O  O20  1  0.00869682  0.70036068  0.91908899  1
  O  O21  1  0.41163932  0.43970327  0.21001631  1
  O  O22  1  0.81844969  0.58885353  0.36975567  1
  O  O23  1  0.25239049  0.71474028  0.50605723  1
  O  O24  1  0.67013519  0.86198591  0.64509215  1
  O  O25  1  0.08793645  0.00441657  0.78564835  1
  O  O26  1  0.49043146  0.16230623  0.92357698  1
  O  O27  1  0.99419940  0.29946840  0.07690885  1
