# generated using pymatgen
data_CdGa2SnS6
_symmetry_space_group_name_H-M   'P 1'
_cell_length_a   6.54806951
_cell_length_b   8.38116234
_cell_length_c   8.38116235
_cell_angle_alpha   86.85729149
_cell_angle_beta   81.69834965
_cell_angle_gamma   81.69834968
_symmetry_Int_Tables_number   1
_chemical_formula_structural   CdGa2SnS6
_chemical_formula_sum   'Cd2 Ga4 Sn2 S12'
_cell_volume   450.10180642
_cell_formula_units_Z   2
loop_
 _symmetry_equiv_pos_site_id
 _symmetry_equiv_pos_as_xyz
  1  'x, y, z'
loop_
 _atom_site_type_symbol
 _atom_site_label
 _atom_site_symmetry_multiplicity
 _atom_site_fract_x
 _atom_site_fract_y
 _atom_site_fract_z
 _atom_site_occupancy
  Cd  Cd0  1  0.25000000  0.90697177  0.09302823  1
  Cd  Cd1  1  0.75000000  0.09302823  0.90697177  1
  Ga  Ga2  1  0.21370450  0.77696922  0.59804929  1
  Ga  Ga3  1  0.28629550  0.40195071  0.22303078  1
  Ga  Ga4  1  0.78629550  0.22303078  0.40195071  1
  Ga  Ga5  1  0.71370450  0.59804929  0.77696922  1
  Sn  Sn6  1  0.25000000  0.26837787  0.73162213  1
  Sn  Sn7  1  0.75000000  0.73162213  0.26837787  1
  S  S8  1  0.13930808  0.97746814  0.78845054  1
  S  S9  1  0.36069192  0.21154946  0.02253186  1
  S  S10  1  0.86069192  0.02253186  0.21154946  1
  S  S11  1  0.63930808  0.78845054  0.97746814  1
  S  S12  1  0.39981034  0.88001681  0.37645563  1
  S  S13  1  0.10018966  0.62354437  0.11998319  1
  S  S14  1  0.60018966  0.11998319  0.62354437  1
  S  S15  1  0.89981034  0.37645563  0.88001681  1
  S  S16  1  0.88465784  0.72297234  0.55613196  1
  S  S17  1  0.61534216  0.44386804  0.27702766  1
  S  S18  1  0.11534216  0.27702766  0.44386804  1
  S  S19  1  0.38465784  0.55613196  0.72297234  1
