# generated using pymatgen
data_Li2LaCu
_symmetry_space_group_name_H-M   'P 1'
_cell_length_a   4.14014313
_cell_length_b   4.14014313
_cell_length_c   11.02283975
_cell_angle_alpha   79.17567143
_cell_angle_beta   79.17567143
_cell_angle_gamma   90.00000000
_symmetry_Int_Tables_number   1
_chemical_formula_structural   Li2LaCu
_chemical_formula_sum   'Li4 La2 Cu2'
_cell_volume   182.15469993
_cell_formula_units_Z   2
loop_
 _symmetry_equiv_pos_site_id
 _symmetry_equiv_pos_as_xyz
  1  'x, y, z'
loop_
 _atom_site_type_symbol
 _atom_site_label
 _atom_site_symmetry_multiplicity
 _atom_site_fract_x
 _atom_site_fract_y
 _atom_site_fract_z
 _atom_site_occupancy
  Li  Li0  1  0.55326633  0.12500000  0.25000000  1
  Li  Li1  1  0.19673367  0.62500000  0.25000000  1
  Li  Li2  1  0.37500000  0.44673367  0.75000000  1
  Li  Li3  1  0.87500000  0.80326633  0.75000000  1
  Cu  Cu4  1  0.50000000  0.50000000  0.00000000  1
  Cu  Cu5  1  0.25000000  0.75000000  0.50000000  1
  La  La6  1  0.00000000  0.00000000  0.00000000  1
  La  La7  1  0.75000000  0.25000000  0.50000000  1
