# generated using pymatgen
data_Rb4CaCe3S8
_symmetry_space_group_name_H-M   'P 1'
_cell_length_a   8.43655679
_cell_length_b   9.06914786
_cell_length_c   8.43731494
_cell_angle_alpha   117.73116746
_cell_angle_beta   119.99702757
_cell_angle_gamma   90.00000000
_symmetry_Int_Tables_number   1
_chemical_formula_structural   Rb4CaCe3S8
_chemical_formula_sum   'Rb4 Ca1 Ce3 S8'
_cell_volume   471.53167078
_cell_formula_units_Z   1
loop_
 _symmetry_equiv_pos_site_id
 _symmetry_equiv_pos_as_xyz
  1  'x, y, z'
loop_
 _atom_site_type_symbol
 _atom_site_label
 _atom_site_symmetry_multiplicity
 _atom_site_fract_x
 _atom_site_fract_y
 _atom_site_fract_z
 _atom_site_occupancy
  Rb  Rb0  1  0.50000000  0.00000000  0.00000000  1
  Rb  Rb1  1  0.50000000  0.00000000  0.50000000  1
  Rb  Rb2  1  0.00000000  0.00000000  0.00000000  1
  Rb  Rb3  1  -0.00000000  0.00000000  0.50000000  1
  Ca  Ca4  1  0.00000000  0.50000000  0.00000000  1
  Ce  Ce5  1  0.50000000  0.50000000  0.00000000  1
  Ce  Ce6  1  0.50000000  0.50000000  0.50000000  1
  Ce  Ce7  1  0.00000000  0.50000000  0.50000000  1
  S  S8  1  0.23488476  0.69306064  0.95821298  1
  S  S9  1  0.23484743  0.69306413  0.46969486  1
  S  S10  1  0.26823732  0.30474680  0.53647465  1
  S  S11  1  0.72332822  0.69306064  0.95821298  1
  S  S12  1  0.27667178  0.30693936  0.04178702  1
  S  S13  1  0.73176268  0.69525320  0.46352535  1
  S  S14  1  0.76515257  0.30693587  0.53030514  1
  S  S15  1  0.76511524  0.30693936  0.04178702  1
