# generated using pymatgen
data_BaCdBiH
_symmetry_space_group_name_H-M   'P 1'
_cell_length_a   4.89190314
_cell_length_b   4.89193074
_cell_length_c   5.36739418
_cell_angle_alpha   89.99717324
_cell_angle_beta   90.00000000
_cell_angle_gamma   119.99981338
_symmetry_Int_Tables_number   1
_chemical_formula_structural   BaCdBiH
_chemical_formula_sum   'Ba1 Cd1 Bi1 H1'
_cell_volume   111.23797841
_cell_formula_units_Z   1
loop_
 _symmetry_equiv_pos_site_id
 _symmetry_equiv_pos_as_xyz
  1  'x, y, z'
loop_
 _atom_site_type_symbol
 _atom_site_label
 _atom_site_symmetry_multiplicity
 _atom_site_fract_x
 _atom_site_fract_y
 _atom_site_fract_z
 _atom_site_occupancy
  Ba  Ba0  1  0.90525125  0.81050251  0.79889683  1
  Cd  Cd1  1  0.23859350  0.47718701  0.21695104  1
  Bi  Bi2  1  0.57192855  0.14385710  0.36499328  1
  H  H3  1  0.23855669  0.47711339  0.85828886  1
