# generated using pymatgen
data_Ho3Ni5Te12
_symmetry_space_group_name_H-M   'P 1'
_cell_length_a   14.12190351
_cell_length_b   14.12190351
_cell_length_c   14.12190351
_cell_angle_alpha   109.47122065
_cell_angle_beta   109.47122063
_cell_angle_gamma   109.47122064
_symmetry_Int_Tables_number   1
_chemical_formula_structural   Ho3Ni5Te12
_chemical_formula_sum   'Ho12 Ni20 Te48'
_cell_volume   2167.99276434
_cell_formula_units_Z   4
loop_
 _symmetry_equiv_pos_site_id
 _symmetry_equiv_pos_as_xyz
  1  'x, y, z'
loop_
 _atom_site_type_symbol
 _atom_site_label
 _atom_site_symmetry_multiplicity
 _atom_site_fract_x
 _atom_site_fract_y
 _atom_site_fract_z
 _atom_site_occupancy
  Ho  Ho0  1  0.75000000  0.37500000  0.12500000  1
  Ho  Ho1  1  0.87500000  0.75000000  0.12500000  1
  Ho  Ho2  1  0.37500000  0.75000000  0.62500000  1
  Ho  Ho3  1  0.25000000  0.12500000  0.37500000  1
  Ho  Ho4  1  0.87500000  0.12500000  0.25000000  1
  Ho  Ho5  1  0.37500000  0.62500000  0.25000000  1
  Ho  Ho6  1  0.62500000  0.37500000  0.75000000  1
  Ho  Ho7  1  0.12500000  0.87500000  0.75000000  1
  Ho  Ho8  1  0.75000000  0.87500000  0.62500000  1
  Ho  Ho9  1  0.62500000  0.25000000  0.37500000  1
  Ho  Ho10  1  0.12500000  0.25000000  0.87500000  1
  Ho  Ho11  1  0.25000000  0.62500000  0.87500000  1
  Ni  Ni12  1  0.12500000  0.37500000  0.25000000  1
  Ni  Ni13  1  0.00000000  0.50000000  0.00000000  1
  Ni  Ni14  1  0.00000000  0.00000000  0.00000000  1
  Ni  Ni15  1  0.37500000  0.25000000  0.12500000  1
  Ni  Ni16  1  0.50000000  -0.00000000  0.50000000  1
  Ni  Ni17  1  0.50000000  0.50000000  0.00000000  1
  Ni  Ni18  1  0.12500000  0.75000000  0.37500000  1
  Ni  Ni19  1  0.75000000  0.12500000  0.87500000  1
  Ni  Ni20  1  0.75000000  0.62500000  0.37500000  1
  Ni  Ni21  1  0.37500000  0.12500000  0.75000000  1
  Ni  Ni22  1  0.62500000  0.87500000  0.25000000  1
  Ni  Ni23  1  0.50000000  0.50000000  0.50000000  1
  Ni  Ni24  1  0.50000000  0.00000000  0.00000000  1
  Ni  Ni25  1  0.00000000  -0.00000000  0.50000000  1
  Ni  Ni26  1  0.25000000  0.37500000  0.62500000  1
  Ni  Ni27  1  0.25000000  0.87500000  0.12500000  1
  Ni  Ni28  1  0.00000000  0.50000000  0.50000000  1
  Ni  Ni29  1  0.87500000  0.25000000  0.62500000  1
  Ni  Ni30  1  0.62500000  0.75000000  0.87500000  1
  Ni  Ni31  1  0.87500000  0.62500000  0.75000000  1
  Te  Te32  1  0.70391671  0.11816250  0.02821060  1
  Te  Te33  1  0.32429389  0.52821060  0.41004810  1
  Te  Te34  1  0.97178940  0.38183750  0.29608329  1
  Te  Te35  1  0.52821060  0.20391671  0.11816250  1
  Te  Te36  1  0.58575421  0.70391671  0.67570611  1
  Te  Te37  1  0.97178940  0.58995190  0.17570611  1
  Te  Te38  1  0.32429389  0.79608329  0.41424579  1
  Te  Te39  1  0.08995190  0.91424579  0.11816250  1
  Te  Te40  1  0.58995190  0.97178940  0.67570611  1
  Te  Te41  1  0.70391671  0.58575421  0.17570611  1
  Te  Te42  1  0.79608329  0.47178940  0.38183750  1
  Te  Te43  1  0.82429389  0.91004810  0.02821060  1
  Te  Te44  1  0.11816250  0.70391671  0.52821060  1
  Te  Te45  1  0.38183750  0.41004810  0.08575421  1
  Te  Te46  1  0.08575421  0.91004810  0.38183750  1
  Te  Te47  1  0.41424579  0.11816250  0.58995190  1
  Te  Te48  1  0.08575421  0.17570611  0.20391671  1
  Te  Te49  1  0.47178940  0.67570611  0.08995190  1
  Te  Te50  1  0.82429389  0.91424579  0.29608329  1
  Te  Te51  1  0.11816250  0.41424579  0.08995190  1
  Te  Te52  1  0.38183750  0.97178940  0.79608329  1
  Te  Te53  1  0.58995190  0.61816250  0.41424579  1
  Te  Te54  1  0.91004810  0.82429389  0.52821060  1
  Te  Te55  1  0.79608329  0.32429389  0.91424579  1
  Te  Te56  1  0.41004810  0.38183750  0.58575421  1
  Te  Te57  1  0.08995190  0.17570611  0.47178940  1
  Te  Te58  1  0.20391671  0.67570611  0.08575421  1
  Te  Te59  1  0.17570611  0.08575421  0.70391671  1
  Te  Te60  1  0.61816250  0.02821060  0.20391671  1
  Te  Te61  1  0.88183750  0.58575421  0.91004810  1
  Te  Te62  1  0.52821060  0.32429389  0.91004810  1
  Te  Te63  1  0.58575421  0.88183750  0.41004810  1
  Te  Te64  1  0.91424579  0.82429389  0.79608329  1
  Te  Te65  1  0.91424579  0.08995190  0.61816250  1
  Te  Te66  1  0.88183750  0.29608329  0.47178940  1
  Te  Te67  1  0.17570611  0.08995190  0.97178940  1
  Te  Te68  1  0.61816250  0.58995190  0.91424579  1
  Te  Te69  1  0.41004810  0.02821060  0.32429389  1
  Te  Te70  1  0.29608329  0.41424579  0.82429389  1
  Te  Te71  1  0.20391671  0.52821060  0.61816250  1
  Te  Te72  1  0.91004810  0.08575421  0.88183750  1
  Te  Te73  1  0.67570611  0.20391671  0.58575421  1
  Te  Te74  1  0.47178940  0.79608329  0.88183750  1
  Te  Te75  1  0.02821060  0.41004810  0.82429389  1
  Te  Te76  1  0.41424579  0.29608329  0.32429389  1
  Te  Te77  1  0.02821060  0.61816250  0.70391671  1
  Te  Te78  1  0.67570611  0.47178940  0.58995190  1
  Te  Te79  1  0.29608329  0.88183750  0.97178940  1
