# generated using pymatgen
data_Cs2LaPO
_symmetry_space_group_name_H-M   'P 1'
_cell_length_a   10.83444300
_cell_length_b   4.88392915
_cell_length_c   8.42862016
_cell_angle_alpha   90.00000000
_cell_angle_beta   107.33471314
_cell_angle_gamma   90.00000000
_symmetry_Int_Tables_number   1
_chemical_formula_structural   Cs2LaPO
_chemical_formula_sum   'Cs4 La2 P2 O2'
_cell_volume   425.74049983
_cell_formula_units_Z   2
loop_
 _symmetry_equiv_pos_site_id
 _symmetry_equiv_pos_as_xyz
  1  'x, y, z'
loop_
 _atom_site_type_symbol
 _atom_site_label
 _atom_site_symmetry_multiplicity
 _atom_site_fract_x
 _atom_site_fract_y
 _atom_site_fract_z
 _atom_site_occupancy
  Cs  Cs0  1  0.23323557  0.00000000  0.10980802  1
  Cs  Cs1  1  0.23323557  0.50000000  0.60980802  1
  Cs  Cs2  1  0.82695554  0.00000000  0.33525886  1
  Cs  Cs3  1  0.82695554  0.50000000  0.83525886  1
  P  P4  1  0.43825368  0.00000000  0.85456567  1
  P  P5  1  0.43825368  0.50000000  0.35456567  1
  O  O6  1  0.74132426  0.00000000  0.63663038  1
  O  O7  1  0.74132426  0.50000000  0.13663038  1
  La  La8  1  0.54115096  0.00000000  0.56018707  1
  La  La9  1  0.54115096  0.50000000  0.06018707  1
