# generated using pymatgen
data_Y2(Ga3Pd2)3
_symmetry_space_group_name_H-M   'P 1'
_cell_length_a   5.35722378
_cell_length_b   5.35722486
_cell_length_c   12.79228241
_cell_angle_alpha   90.00000000
_cell_angle_beta   90.00000000
_cell_angle_gamma   119.99999954
_symmetry_Int_Tables_number   1
_chemical_formula_structural   Y2(Ga3Pd2)3
_chemical_formula_sum   'Y2 Ga9 Pd6'
_cell_volume   317.94963836
_cell_formula_units_Z   1
loop_
 _symmetry_equiv_pos_site_id
 _symmetry_equiv_pos_as_xyz
  1  'x, y, z'
loop_
 _atom_site_type_symbol
 _atom_site_label
 _atom_site_symmetry_multiplicity
 _atom_site_fract_x
 _atom_site_fract_y
 _atom_site_fract_z
 _atom_site_occupancy
  Y  Y0  1  0.00000000  0.00000000  0.65288495  1
  Y  Y1  1  0.00000000  0.00000000  0.34711505  1
  Ga  Ga2  1  0.50000000  0.00000000  0.83883394  1
  Ga  Ga3  1  0.00000000  0.50000000  0.83883394  1
  Ga  Ga4  1  0.50000000  0.50000000  0.83883394  1
  Ga  Ga5  1  0.50000000  0.00000000  0.16116606  1
  Ga  Ga6  1  0.00000000  0.50000000  0.16116606  1
  Ga  Ga7  1  0.50000000  0.50000000  0.16116606  1
  Ga  Ga8  1  0.50000000  0.00000000  0.50000000  1
  Ga  Ga9  1  0.00000000  0.50000000  0.50000000  1
  Ga  Ga10  1  0.50000000  0.50000000  0.50000000  1
  Pd  Pd11  1  0.33333300  0.66666700  0.00000000  1
  Pd  Pd12  1  0.66666700  0.33333300  0.00000000  1
  Pd  Pd13  1  0.33333300  0.66666700  0.67169384  1
  Pd  Pd14  1  0.66666700  0.33333300  0.67169384  1
  Pd  Pd15  1  0.66666700  0.33333300  0.32830616  1
  Pd  Pd16  1  0.33333300  0.66666700  0.32830616  1
