# generated using pymatgen
data_U2Sb4Pd
_symmetry_space_group_name_H-M   'P 1'
_cell_length_a   4.37888261
_cell_length_b   4.37888261
_cell_length_c   9.25078789
_cell_angle_alpha   90.00000000
_cell_angle_beta   90.00000000
_cell_angle_gamma   90.00000000
_symmetry_Int_Tables_number   1
_chemical_formula_structural   U2Sb4Pd
_chemical_formula_sum   'U2 Sb4 Pd1'
_cell_volume   177.38027692
_cell_formula_units_Z   1
loop_
 _symmetry_equiv_pos_site_id
 _symmetry_equiv_pos_as_xyz
  1  'x, y, z'
loop_
 _atom_site_type_symbol
 _atom_site_label
 _atom_site_symmetry_multiplicity
 _atom_site_fract_x
 _atom_site_fract_y
 _atom_site_fract_z
 _atom_site_occupancy
  Sb  Sb0  1  0.50000000  0.00000000  0.16714601  1
  Sb  Sb1  1  0.00000000  0.50000000  0.83285399  1
  Sb  Sb2  1  0.50000000  0.50000000  0.50000000  1
  Sb  Sb3  1  0.00000000  0.00000000  0.50000000  1
  U  U4  1  0.50000000  0.00000000  0.76442077  1
  U  U5  1  0.00000000  0.50000000  0.23557923  1
  Pd  Pd6  1  0.50000000  0.50000000  0.00000000  1
