# generated using pymatgen
data_LaGeO4
_symmetry_space_group_name_H-M   'P 1'
_cell_length_a   6.25315333
_cell_length_b   6.25315333
_cell_length_c   6.25315334
_cell_angle_alpha   107.02168210
_cell_angle_beta   107.02168211
_cell_angle_gamma   114.48990155
_symmetry_Int_Tables_number   1
_chemical_formula_structural   LaGeO4
_chemical_formula_sum   'La2 Ge2 O8'
_cell_volume   187.13134550
_cell_formula_units_Z   2
loop_
 _symmetry_equiv_pos_site_id
 _symmetry_equiv_pos_as_xyz
  1  'x, y, z'
loop_
 _atom_site_type_symbol
 _atom_site_label
 _atom_site_symmetry_multiplicity
 _atom_site_fract_x
 _atom_site_fract_y
 _atom_site_fract_z
 _atom_site_occupancy
  Ge  Ge0  1  0.62500000  0.37500000  0.25000000  1
  Ge  Ge1  1  0.37500000  0.62500000  0.75000000  1
  O  O2  1  0.20259022  0.63244882  0.92985860  1
  O  O3  1  0.63244882  0.20259022  0.42985860  1
  O  O4  1  0.27273162  0.20259022  0.07014140  1
  O  O5  1  0.20259022  0.27273162  0.57014140  1
  O  O6  1  0.36755118  0.79740978  0.57014140  1
  O  O7  1  0.79740978  0.36755118  0.07014140  1
  O  O8  1  0.79740978  0.72726838  0.42985860  1
  O  O9  1  0.72726838  0.79740978  0.92985860  1
  La  La10  1  0.87500000  0.12500000  0.75000000  1
  La  La11  1  0.12500000  0.87500000  0.25000000  1
