# generated using pymatgen
data_Pm3Tl2Pb
_symmetry_space_group_name_H-M   'P 1'
_cell_length_a   3.94087289
_cell_length_b   3.94087289
_cell_length_c   11.41459984
_cell_angle_alpha   90.00000000
_cell_angle_beta   90.00000000
_cell_angle_gamma   90.00000000
_symmetry_Int_Tables_number   1
_chemical_formula_structural   Pm3Tl2Pb
_chemical_formula_sum   'Pm3 Tl2 Pb1'
_cell_volume   177.27420465
_cell_formula_units_Z   1
loop_
 _symmetry_equiv_pos_site_id
 _symmetry_equiv_pos_as_xyz
  1  'x, y, z'
loop_
 _atom_site_type_symbol
 _atom_site_label
 _atom_site_symmetry_multiplicity
 _atom_site_fract_x
 _atom_site_fract_y
 _atom_site_fract_z
 _atom_site_occupancy
  Pm  Pm0  1  0.00000000  0.00000000  0.00000000  1
  Pm  Pm1  1  0.00000000  0.00000000  0.66885362  1
  Pm  Pm2  1  0.00000000  0.00000000  0.33114638  1
  Tl  Tl3  1  0.50000000  0.50000000  0.83776076  1
  Tl  Tl4  1  0.50000000  0.50000000  0.16223924  1
  Pb  Pb5  1  0.50000000  0.50000000  0.50000000  1
