# generated using pymatgen
data_Pa2TcB
_symmetry_space_group_name_H-M   'P 1'
_cell_length_a   3.25309673
_cell_length_b   5.01544780
_cell_length_c   9.12014390
_cell_angle_alpha   101.16596301
_cell_angle_beta   90.00000000
_cell_angle_gamma   90.00000000
_symmetry_Int_Tables_number   1
_chemical_formula_structural   Pa2TcB
_chemical_formula_sum   'Pa4 Tc2 B2'
_cell_volume   145.98510339
_cell_formula_units_Z   2
loop_
 _symmetry_equiv_pos_site_id
 _symmetry_equiv_pos_as_xyz
  1  'x, y, z'
loop_
 _atom_site_type_symbol
 _atom_site_label
 _atom_site_symmetry_multiplicity
 _atom_site_fract_x
 _atom_site_fract_y
 _atom_site_fract_z
 _atom_site_occupancy
  Pa  Pa0  1  0.75000000  0.79641780  0.57153458  1
  Pa  Pa1  1  0.25000000  0.20358220  0.42846542  1
  Pa  Pa2  1  0.75000000  0.16954532  0.91044712  1
  Pa  Pa3  1  0.25000000  0.83045468  0.08955288  1
  Tc  Tc4  1  0.75000000  0.44726713  0.21742698  1
  Tc  Tc5  1  0.25000000  0.55273287  0.78257302  1
  B  B6  1  0.25000000  0.66599847  0.34817941  1
  B  B7  1  0.75000000  0.33400153  0.65182059  1
