# generated using pymatgen
data_Zr3TiO8
_symmetry_space_group_name_H-M   'P 1'
_cell_length_a   6.41427202
_cell_length_b   6.41427202
_cell_length_c   6.41427202
_cell_angle_alpha   133.16434079
_cell_angle_beta   133.16434079
_cell_angle_gamma   68.39617829
_symmetry_Int_Tables_number   1
_chemical_formula_structural   Zr3TiO8
_chemical_formula_sum   'Zr3 Ti1 O8'
_cell_volume   137.90773902
_cell_formula_units_Z   1
loop_
 _symmetry_equiv_pos_site_id
 _symmetry_equiv_pos_as_xyz
  1  'x, y, z'
loop_
 _atom_site_type_symbol
 _atom_site_label
 _atom_site_symmetry_multiplicity
 _atom_site_fract_x
 _atom_site_fract_y
 _atom_site_fract_z
 _atom_site_occupancy
  Zr  Zr0  1  0.25000000  0.75000000  0.50000000  1
  Zr  Zr1  1  0.75000000  0.25000000  0.50000000  1
  Zr  Zr2  1  0.50000000  0.50000000  0.00000000  1
  Ti  Ti3  1  0.00000000  0.00000000  0.00000000  1
  O  O4  1  0.54748183  0.13676998  0.00000000  1
  O  O5  1  0.13676998  0.54748083  0.00000000  1
  O  O6  1  0.86323002  0.86323002  0.41071185  1
  O  O7  1  0.45251917  0.45251917  0.58928815  1
  O  O8  1  0.31222660  0.86908737  0.00000000  1
  O  O9  1  0.86908737  0.31222660  0.00000000  1
  O  O10  1  0.13091263  0.13091263  0.44313922  1
  O  O11  1  0.68777340  0.68777340  0.55686078  1
