# generated using pymatgen
data_La2P4IrRh3
_symmetry_space_group_name_H-M   'P 1'
_cell_length_a   4.20158804
_cell_length_b   4.20158804
_cell_length_c   9.68076403
_cell_angle_alpha   90.00000000
_cell_angle_beta   90.00000000
_cell_angle_gamma   90.00000000
_symmetry_Int_Tables_number   1
_chemical_formula_structural   La2P4IrRh3
_chemical_formula_sum   'La2 P4 Ir1 Rh3'
_cell_volume   170.89783880
_cell_formula_units_Z   1
loop_
 _symmetry_equiv_pos_site_id
 _symmetry_equiv_pos_as_xyz
  1  'x, y, z'
loop_
 _atom_site_type_symbol
 _atom_site_label
 _atom_site_symmetry_multiplicity
 _atom_site_fract_x
 _atom_site_fract_y
 _atom_site_fract_z
 _atom_site_occupancy
  La  La0  1  0.50000000  0.00000000  0.24143498  1
  La  La1  1  0.00000000  0.50000000  0.75856502  1
  P  P2  1  0.50000000  0.50000000  0.00000000  1
  P  P3  1  0.00000000  0.00000000  0.00000000  1
  P  P4  1  0.50000000  0.00000000  0.63794832  1
  P  P5  1  0.00000000  0.50000000  0.36205168  1
  Ir  Ir6  1  0.50000000  0.50000000  0.50000000  1
  Rh  Rh7  1  0.00000000  0.00000000  0.50000000  1
  Rh  Rh8  1  0.50000000  0.00000000  0.88823221  1
  Rh  Rh9  1  0.00000000  0.50000000  0.11176779  1
