# generated using pymatgen
data_Os2Ru2W
_symmetry_space_group_name_H-M   'P 1'
_cell_length_a   9.72917109
_cell_length_b   8.74308622
_cell_length_c   5.19963979
_cell_angle_alpha   84.43252736
_cell_angle_beta   63.43240417
_cell_angle_gamma   32.13506847
_symmetry_Int_Tables_number   1
_chemical_formula_structural   Os2Ru2W
_chemical_formula_sum   'Os4 Ru4 W2'
_cell_volume   169.56494458
_cell_formula_units_Z   2
loop_
 _symmetry_equiv_pos_site_id
 _symmetry_equiv_pos_as_xyz
  1  'x, y, z'
loop_
 _atom_site_type_symbol
 _atom_site_label
 _atom_site_symmetry_multiplicity
 _atom_site_fract_x
 _atom_site_fract_y
 _atom_site_fract_z
 _atom_site_occupancy
  Os  Os0  1  0.06415851  0.43584149  0.06415851  1
  Os  Os1  1  0.81415851  0.18584149  0.81415851  1
  Os  Os2  1  0.43584149  0.06415851  0.43584149  1
  Os  Os3  1  0.18584149  0.81415851  0.18584149  1
  Ru  Ru4  1  0.14332823  0.14332823  0.35667177  1
  Ru  Ru5  1  0.89332823  0.89332823  0.10667177  1
  Ru  Ru6  1  0.10667177  0.10667177  0.89332823  1
  Ru  Ru7  1  0.35667177  0.35667177  0.14332823  1
  W  W8  1  0.75000000  0.75000000  0.75000000  1
  W  W9  1  0.50000000  0.50000000  0.50000000  1
