# generated using pymatgen
data_MnHSe2
_symmetry_space_group_name_H-M   'P 1'
_cell_length_a   8.42518074
_cell_length_b   8.42518074
_cell_length_c   6.55271016
_cell_angle_alpha   49.99327128
_cell_angle_beta   49.99327128
_cell_angle_gamma   90.00000000
_symmetry_Int_Tables_number   1
_chemical_formula_structural   MnHSe2
_chemical_formula_sum   'Mn2 H2 Se4'
_cell_volume   193.69797285
_cell_formula_units_Z   2
loop_
 _symmetry_equiv_pos_site_id
 _symmetry_equiv_pos_as_xyz
  1  'x, y, z'
loop_
 _atom_site_type_symbol
 _atom_site_label
 _atom_site_symmetry_multiplicity
 _atom_site_fract_x
 _atom_site_fract_y
 _atom_site_fract_z
 _atom_site_occupancy
  H  H0  1  0.75000000  0.75000000  0.50000000  1
  H  H1  1  0.25000000  0.25000000  0.50000000  1
  Mn  Mn2  1  0.75000000  0.25000000  0.50000000  1
  Mn  Mn3  1  0.25000000  0.75000000  0.50000000  1
  Se  Se4  1  0.85066357  0.35066357  0.00000000  1
  Se  Se5  1  0.14933643  0.64933643  0.00000000  1
  Se  Se6  1  0.35066357  0.14933643  0.00000000  1
  Se  Se7  1  0.64933643  0.85066357  0.00000000  1
