# generated using pymatgen
data_V2Se3
_symmetry_space_group_name_H-M   'P 1'
_cell_length_a   5.78712043
_cell_length_b   5.97764045
_cell_length_c   20.25194568
_cell_angle_alpha   90.00000000
_cell_angle_beta   90.00000000
_cell_angle_gamma   90.00000000
_symmetry_Int_Tables_number   1
_chemical_formula_structural   V2Se3
_chemical_formula_sum   'V4 Se6'
_cell_volume   700.58214226
_cell_formula_units_Z   2
loop_
 _symmetry_equiv_pos_site_id
 _symmetry_equiv_pos_as_xyz
  1  'x, y, z'
loop_
 _atom_site_type_symbol
 _atom_site_label
 _atom_site_symmetry_multiplicity
 _atom_site_fract_x
 _atom_site_fract_y
 _atom_site_fract_z
 _atom_site_occupancy
  Se  Se0  1  0.53292653  0.66551256  0.62966521  1
  Se  Se1  1  0.03292653  0.16567907  0.37033479  1
  Se  Se2  1  0.46707347  0.66567907  0.37033479  1
  Se  Se3  1  0.96707347  0.16551256  0.62966521  1
  Se  Se4  1  0.00000000  0.66559581  0.50000000  1
  Se  Se5  1  0.50000000  0.16559581  0.50000000  1
  V  V6  1  0.75002786  0.41551444  0.56531864  1
  V  V7  1  0.25000000  0.41566719  0.43468136  1
  V  V8  1  0.25000000  0.91567719  0.43468136  1
  V  V9  1  0.74997214  0.91551444  0.56531864  1
