# generated using pymatgen
data_CaAl3PtAu
_symmetry_space_group_name_H-M   'P 1'
_cell_length_a   5.73591817
_cell_length_b   6.41709272
_cell_length_c   7.17568534
_cell_angle_alpha   116.56042983
_cell_angle_beta   90.00000000
_cell_angle_gamma   90.00000000
_symmetry_Int_Tables_number   1
_chemical_formula_structural   CaAl3PtAu
_chemical_formula_sum   'Ca2 Al6 Pt2 Au2'
_cell_volume   236.24746340
_cell_formula_units_Z   2
loop_
 _symmetry_equiv_pos_site_id
 _symmetry_equiv_pos_as_xyz
  1  'x, y, z'
loop_
 _atom_site_type_symbol
 _atom_site_label
 _atom_site_symmetry_multiplicity
 _atom_site_fract_x
 _atom_site_fract_y
 _atom_site_fract_z
 _atom_site_occupancy
  Ca  Ca0  1  0.75000000  0.28296406  0.56592812  1
  Ca  Ca1  1  0.25000000  0.71703594  0.43407188  1
  Al  Al2  1  0.25000000  0.13574609  0.27149119  1
  Al  Al3  1  0.00000000  0.29533689  1.00000000  1
  Al  Al4  1  0.50000000  0.70466311  0.00000000  1
  Al  Al5  1  0.50000000  0.29533689  1.00000000  1
  Al  Al6  1  0.00000000  0.70466311  0.00000000  1
  Al  Al7  1  0.75000000  0.86425391  0.72850881  1
  Pt  Pt8  1  0.25000000  0.93208578  0.86417055  1
  Pt  Pt9  1  0.75000000  0.06791422  0.13582945  1
  Au  Au10  1  0.25000000  0.34063222  0.68126445  1
  Au  Au11  1  0.75000000  0.65936778  0.31873555  1
