# generated using pymatgen
data_Cs2Sb8S13
_symmetry_space_group_name_H-M   'P 1'
_cell_length_a   8.61743606
_cell_length_b   11.66029989
_cell_length_c   15.54975889
_cell_angle_alpha   86.24495202
_cell_angle_beta   78.24847624
_cell_angle_gamma   73.59521521
_symmetry_Int_Tables_number   1
_chemical_formula_structural   Cs2Sb8S13
_chemical_formula_sum   'Cs4 Sb16 S26'
_cell_volume   1467.39273147
_cell_formula_units_Z   2
loop_
 _symmetry_equiv_pos_site_id
 _symmetry_equiv_pos_as_xyz
  1  'x, y, z'
loop_
 _atom_site_type_symbol
 _atom_site_label
 _atom_site_symmetry_multiplicity
 _atom_site_fract_x
 _atom_site_fract_y
 _atom_site_fract_z
 _atom_site_occupancy
  Cs  Cs0  1  0.71269859  0.43350716  0.76590821  1
  Cs  Cs1  1  0.28730141  0.56649284  0.23409179  1
  Cs  Cs2  1  0.62298355  0.13800645  0.06228896  1
  Cs  Cs3  1  0.37701645  0.86199355  0.93771104  1
  Sb  Sb4  1  0.83152040  0.62413767  0.06694456  1
  Sb  Sb5  1  0.16847960  0.37586233  0.93305544  1
  Sb  Sb6  1  0.75554718  0.00681395  0.58856050  1
  Sb  Sb7  1  0.24445282  0.99318605  0.41143950  1
  Sb  Sb8  1  0.95960057  0.72992767  0.44992362  1
  Sb  Sb9  1  0.04039943  0.27007233  0.55007638  1
  Sb  Sb10  1  0.51829174  0.77636339  0.57613091  1
  Sb  Sb11  1  0.48170826  0.22363661  0.42386909  1
  Sb  Sb12  1  0.36705695  0.20529528  0.72696118  1
  Sb  Sb13  1  0.63294305  0.79470472  0.27303882  1
  Sb  Sb14  1  0.10969614  0.97427376  0.72739449  1
  Sb  Sb15  1  0.89030386  0.02572624  0.27260551  1
  Sb  Sb16  1  0.02681293  0.67762368  0.81754686  1
  Sb  Sb17  1  0.97318707  0.32237632  0.18245314  1
  Sb  Sb18  1  0.30060409  0.52850222  0.58553313  1
  Sb  Sb19  1  0.69939591  0.47149778  0.41446687  1
  S  S20  1  0.84051429  0.10751923  0.70446088  1
  S  S21  1  0.15948571  0.89248077  0.29553912  1
  S  S22  1  0.78875911  0.61744485  0.55467756  1
  S  S23  1  0.21124089  0.38255515  0.44532244  1
  S  S24  1  0.44440752  0.63406487  0.43526080  1
  S  S25  1  0.55559248  0.36593513  0.56473920  1
  S  S26  1  0.72250104  0.88950055  0.42391646  1
  S  S27  1  0.27749896  0.11049945  0.57608354  1
  S  S28  1  0.23004985  0.35599169  0.08570271  1
  S  S29  1  0.76995015  0.64400831  0.91429729  1
  S  S30  1  0.44791034  0.25554709  0.87001047  1
  S  S31  1  0.55208966  0.74445291  0.12998953  1
  S  S32  1  0.38878695  0.65115476  0.69114993  1
  S  S33  1  0.61121305  0.34884524  0.30885007  1
  S  S34  1  0.02351009  0.84678584  0.56351881  1
  S  S35  1  0.97648991  0.15321416  0.43648119  1
  S  S36  1  0.78798706  0.41909806  0.07945894  1
  S  S37  1  0.21201294  0.58090194  0.92054106  1
  S  S38  1  0.59531294  0.88616559  0.69212906  1
  S  S39  1  0.40468706  0.11383441  0.30787094  1
  S  S40  1  0.15912388  0.11557937  0.82478738  1
  S  S41  1  0.84087612  0.88442063  0.17521262  1
  S  S42  1  0.16134914  0.40019490  0.71939325  1
  S  S43  1  0.83865086  0.59980510  0.28060675  1
  S  S44  1  0.99450978  0.87991232  0.87091061  1
  S  S45  1  0.00549022  0.12008768  0.12908939  1
