# generated using pymatgen
data_Co(SnAs)2
_symmetry_space_group_name_H-M   'P 1'
_cell_length_a   6.00259090
_cell_length_b   6.13340452
_cell_length_c   17.84652841
_cell_angle_alpha   90.00000000
_cell_angle_beta   90.00000000
_cell_angle_gamma   90.00000110
_symmetry_Int_Tables_number   1
_chemical_formula_structural   Co(SnAs)2
_chemical_formula_sum   'Co2 Sn4 As4'
_cell_volume   657.04346795
_cell_formula_units_Z   2
loop_
 _symmetry_equiv_pos_site_id
 _symmetry_equiv_pos_as_xyz
  1  'x, y, z'
loop_
 _atom_site_type_symbol
 _atom_site_label
 _atom_site_symmetry_multiplicity
 _atom_site_fract_x
 _atom_site_fract_y
 _atom_site_fract_z
 _atom_site_occupancy
  As  As0  1  0.78167308  0.24719734  0.57533369  1
  As  As1  1  0.21832693  0.24719735  0.57533369  1
  As  As2  1  0.28167311  0.74719732  0.57533370  1
  As  As3  1  0.71832691  0.74719732  0.57533370  1
  Co  Co4  1  0.00000002  0.53791434  0.51766601  1
  Co  Co5  1  0.50000000  0.03791433  0.51766601  1
  Sn  Sn6  1  0.74845142  0.28231721  0.41583330  1
  Sn  Sn7  1  0.25154858  0.28231721  0.41583330  1
  Sn  Sn8  1  0.24845140  0.78231722  0.41583330  1
  Sn  Sn9  1  0.75154861  0.78231722  0.41583330  1
