# generated using pymatgen
data_Pu2Cu4Si3Au
_symmetry_space_group_name_H-M   'P 1'
_cell_length_a   4.05638453
_cell_length_b   4.05638453
_cell_length_c   10.21940918
_cell_angle_alpha   90.00000000
_cell_angle_beta   90.00000000
_cell_angle_gamma   90.00000000
_symmetry_Int_Tables_number   1
_chemical_formula_structural   Pu2Cu4Si3Au
_chemical_formula_sum   'Pu2 Cu4 Si3 Au1'
_cell_volume   168.15276925
_cell_formula_units_Z   1
loop_
 _symmetry_equiv_pos_site_id
 _symmetry_equiv_pos_as_xyz
  1  'x, y, z'
loop_
 _atom_site_type_symbol
 _atom_site_label
 _atom_site_symmetry_multiplicity
 _atom_site_fract_x
 _atom_site_fract_y
 _atom_site_fract_z
 _atom_site_occupancy
  Pu  Pu0  1  0.50000000  0.00000000  0.24121296  1
  Pu  Pu1  1  0.00000000  0.50000000  0.75878704  1
  Cu  Cu2  1  0.50000000  0.50000000  0.00000000  1
  Cu  Cu3  1  0.00000000  0.00000000  0.00000000  1
  Cu  Cu4  1  0.50000000  0.00000000  0.64814705  1
  Cu  Cu5  1  0.00000000  0.50000000  0.35185295  1
  Si  Si6  1  0.00000000  0.00000000  0.50000000  1
  Si  Si7  1  0.50000000  0.00000000  0.87230754  1
  Si  Si8  1  0.00000000  0.50000000  0.12769246  1
  Au  Au9  1  0.50000000  0.50000000  0.50000000  1
