# generated using pymatgen
data_TcPtAu2
_symmetry_space_group_name_H-M   'P 1'
_cell_length_a   4.91647424
_cell_length_b   2.75994537
_cell_length_c   4.93427089
_cell_angle_alpha   90.00433115
_cell_angle_beta   90.00000000
_cell_angle_gamma   90.00000000
_symmetry_Int_Tables_number   1
_chemical_formula_structural   TcPtAu2
_chemical_formula_sum   'Tc1 Pt1 Au2'
_cell_volume   66.95410993
_cell_formula_units_Z   1
loop_
 _symmetry_equiv_pos_site_id
 _symmetry_equiv_pos_as_xyz
  1  'x, y, z'
loop_
 _atom_site_type_symbol
 _atom_site_label
 _atom_site_symmetry_multiplicity
 _atom_site_fract_x
 _atom_site_fract_y
 _atom_site_fract_z
 _atom_site_occupancy
  Au  Au0  1  0.00000000  0.00959274  0.99745829  1
  Au  Au1  1  0.00000000  0.49040726  0.50254171  1
  Pt  Pt2  1  0.50000000  0.25000000  0.25000000  1
  Tc  Tc3  1  0.50000000  0.75000000  0.75000000  1
