# generated using pymatgen
data_Ni3Cl5
_symmetry_space_group_name_H-M   'P 1'
_cell_length_a   6.79588524
_cell_length_b   6.79588524
_cell_length_c   7.90553812
_cell_angle_alpha   90.00000000
_cell_angle_beta   90.00000000
_cell_angle_gamma   120.00000000
_symmetry_Int_Tables_number   1
_chemical_formula_structural   Ni3Cl5
_chemical_formula_sum   'Ni6 Cl10'
_cell_volume   316.19437656
_cell_formula_units_Z   2
loop_
 _symmetry_equiv_pos_site_id
 _symmetry_equiv_pos_as_xyz
  1  'x, y, z'
loop_
 _atom_site_type_symbol
 _atom_site_label
 _atom_site_symmetry_multiplicity
 _atom_site_fract_x
 _atom_site_fract_y
 _atom_site_fract_z
 _atom_site_occupancy
  Ni  Ni0  1  0.59328496  0.00000000  0.25000000  1
  Ni  Ni1  1  0.40671504  0.00000000  0.75000000  1
  Ni  Ni2  1  0.00000000  0.59328496  0.25000000  1
  Ni  Ni3  1  0.40671504  0.40671504  0.25000000  1
  Ni  Ni4  1  0.59328496  0.59328496  0.75000000  1
  Ni  Ni5  1  0.00000000  0.40671504  0.75000000  1
  Cl  Cl6  1  0.33333333  0.66666667  0.00000000  1
  Cl  Cl7  1  0.66666667  0.33333333  0.50000000  1
  Cl  Cl8  1  0.66666667  0.33333333  0.00000000  1
  Cl  Cl9  1  0.33333333  0.66666667  0.50000000  1
  Cl  Cl10  1  0.26514374  0.00000000  0.25000000  1
  Cl  Cl11  1  0.73485626  0.00000000  0.75000000  1
  Cl  Cl12  1  0.00000000  0.26514374  0.25000000  1
  Cl  Cl13  1  0.73485626  0.73485626  0.25000000  1
  Cl  Cl14  1  0.26514374  0.26514374  0.75000000  1
  Cl  Cl15  1  0.00000000  0.73485626  0.75000000  1
