# generated using pymatgen
data_CeSb6
_symmetry_space_group_name_H-M   'P 1'
_cell_length_a   7.22794376
_cell_length_b   7.22794376
_cell_length_c   7.22794377
_cell_angle_alpha   109.47122064
_cell_angle_beta   109.47122065
_cell_angle_gamma   109.47122066
_symmetry_Int_Tables_number   1
_chemical_formula_structural   CeSb6
_chemical_formula_sum   'Ce1 Sb6'
_cell_volume   290.68485397
_cell_formula_units_Z   1
loop_
 _symmetry_equiv_pos_site_id
 _symmetry_equiv_pos_as_xyz
  1  'x, y, z'
loop_
 _atom_site_type_symbol
 _atom_site_label
 _atom_site_symmetry_multiplicity
 _atom_site_fract_x
 _atom_site_fract_y
 _atom_site_fract_z
 _atom_site_occupancy
  Ce  Ce0  1  0.00000000  0.00000000  0.00000000  1
  Sb  Sb1  1  0.25000000  0.75000000  0.50000000  1
  Sb  Sb2  1  0.50000000  0.75000000  0.25000000  1
  Sb  Sb3  1  0.25000000  0.50000000  0.75000000  1
  Sb  Sb4  1  0.75000000  0.25000000  0.50000000  1
  Sb  Sb5  1  0.50000000  0.25000000  0.75000000  1
  Sb  Sb6  1  0.75000000  0.50000000  0.25000000  1
