# generated using pymatgen
data_Ac5(Pr4Pa)3
_symmetry_space_group_name_H-M   'P 1'
_cell_length_a   16.55593468
_cell_length_b   16.55593467
_cell_length_c   16.55593467
_cell_angle_alpha   109.47122064
_cell_angle_beta   109.47122064
_cell_angle_gamma   109.47122063
_symmetry_Int_Tables_number   1
_chemical_formula_structural   Ac5(Pr4Pa)3
_chemical_formula_sum   'Ac20 Pr48 Pa12'
_cell_volume   3493.32684647
_cell_formula_units_Z   4
loop_
 _symmetry_equiv_pos_site_id
 _symmetry_equiv_pos_as_xyz
  1  'x, y, z'
loop_
 _atom_site_type_symbol
 _atom_site_label
 _atom_site_symmetry_multiplicity
 _atom_site_fract_x
 _atom_site_fract_y
 _atom_site_fract_z
 _atom_site_occupancy
  Pa  Pa0  1  0.75000000  0.37500000  0.12500000  1
  Pa  Pa1  1  0.87500000  0.75000000  0.12500000  1
  Pa  Pa2  1  0.37500000  0.75000000  0.62500000  1
  Pa  Pa3  1  0.25000000  0.12500000  0.37500000  1
  Pa  Pa4  1  0.87500000  0.12500000  0.25000000  1
  Pa  Pa5  1  0.37500000  0.62500000  0.25000000  1
  Pa  Pa6  1  0.62500000  0.37500000  0.75000000  1
  Pa  Pa7  1  0.12500000  0.87500000  0.75000000  1
  Pa  Pa8  1  0.75000000  0.87500000  0.62500000  1
  Pa  Pa9  1  0.62500000  0.25000000  0.37500000  1
  Pa  Pa10  1  0.12500000  0.25000000  0.87500000  1
  Pa  Pa11  1  0.25000000  0.62500000  0.87500000  1
  Ac  Ac12  1  0.12500000  0.37500000  0.25000000  1
  Ac  Ac13  1  0.00000000  0.50000000  0.00000000  1
  Ac  Ac14  1  0.00000000  0.00000000  0.00000000  1
  Ac  Ac15  1  0.37500000  0.25000000  0.12500000  1
  Ac  Ac16  1  0.50000000  0.00000000  0.50000000  1
  Ac  Ac17  1  0.50000000  0.50000000  0.00000000  1
  Ac  Ac18  1  0.12500000  0.75000000  0.37500000  1
  Ac  Ac19  1  0.75000000  0.12500000  0.87500000  1
  Ac  Ac20  1  0.75000000  0.62500000  0.37500000  1
  Ac  Ac21  1  0.37500000  0.12500000  0.75000000  1
  Ac  Ac22  1  0.62500000  0.87500000  0.25000000  1
  Ac  Ac23  1  0.50000000  0.50000000  0.50000000  1
  Ac  Ac24  1  0.50000000  0.00000000  0.00000000  1
  Ac  Ac25  1  0.00000000  0.00000000  0.50000000  1
  Ac  Ac26  1  0.25000000  0.37500000  0.62500000  1
  Ac  Ac27  1  0.25000000  0.87500000  0.12500000  1
  Ac  Ac28  1  0.00000000  0.50000000  0.50000000  1
  Ac  Ac29  1  0.87500000  0.25000000  0.62500000  1
  Ac  Ac30  1  0.62500000  0.75000000  0.87500000  1
  Ac  Ac31  1  0.87500000  0.62500000  0.75000000  1
  Pr  Pr32  1  0.74141250  0.13951044  0.08446452  1
  Pr  Pr33  1  0.34305202  0.58446452  0.44495408  1
  Pr  Pr34  1  0.91553548  0.36048956  0.25858750  1
  Pr  Pr35  1  0.58446452  0.24141250  0.13951044  1
  Pr  Pr36  1  0.60190206  0.74141250  0.65694798  1
  Pr  Pr37  1  0.91553548  0.55504592  0.15694798  1
  Pr  Pr38  1  0.34305202  0.75858750  0.39809794  1
  Pr  Pr39  1  0.05504592  0.89809794  0.13951044  1
  Pr  Pr40  1  0.55504592  0.91553548  0.65694798  1
  Pr  Pr41  1  0.74141250  0.60190206  0.15694798  1
  Pr  Pr42  1  0.75858750  0.41553548  0.36048956  1
  Pr  Pr43  1  0.84305202  0.94495408  0.08446452  1
  Pr  Pr44  1  0.13951044  0.74141250  0.58446452  1
  Pr  Pr45  1  0.36048956  0.44495408  0.10190206  1
  Pr  Pr46  1  0.10190206  0.94495408  0.36048956  1
  Pr  Pr47  1  0.39809794  0.13951044  0.55504592  1
  Pr  Pr48  1  0.10190206  0.15694798  0.24141250  1
  Pr  Pr49  1  0.41553548  0.65694798  0.05504592  1
  Pr  Pr50  1  0.84305202  0.89809794  0.25858750  1
  Pr  Pr51  1  0.13951044  0.39809794  0.05504592  1
  Pr  Pr52  1  0.36048956  0.91553548  0.75858750  1
  Pr  Pr53  1  0.55504592  0.63951044  0.39809794  1
  Pr  Pr54  1  0.94495408  0.84305202  0.58446452  1
  Pr  Pr55  1  0.75858750  0.34305202  0.89809794  1
  Pr  Pr56  1  0.44495408  0.36048956  0.60190206  1
  Pr  Pr57  1  0.05504592  0.15694798  0.41553548  1
  Pr  Pr58  1  0.24141250  0.65694798  0.10190206  1
  Pr  Pr59  1  0.15694798  0.10190206  0.74141250  1
  Pr  Pr60  1  0.63951044  0.08446452  0.24141250  1
  Pr  Pr61  1  0.86048956  0.60190206  0.94495408  1
  Pr  Pr62  1  0.58446452  0.34305202  0.94495408  1
  Pr  Pr63  1  0.60190206  0.86048956  0.44495408  1
  Pr  Pr64  1  0.89809794  0.84305202  0.75858750  1
  Pr  Pr65  1  0.89809794  0.05504592  0.63951044  1
  Pr  Pr66  1  0.86048956  0.25858750  0.41553548  1
  Pr  Pr67  1  0.15694798  0.05504592  0.91553548  1
  Pr  Pr68  1  0.63951044  0.55504592  0.89809794  1
  Pr  Pr69  1  0.44495408  0.08446452  0.34305202  1
  Pr  Pr70  1  0.25858750  0.39809794  0.84305202  1
  Pr  Pr71  1  0.24141250  0.58446452  0.63951044  1
  Pr  Pr72  1  0.94495408  0.10190206  0.86048956  1
  Pr  Pr73  1  0.65694798  0.24141250  0.60190206  1
  Pr  Pr74  1  0.41553548  0.75858750  0.86048956  1
  Pr  Pr75  1  0.08446452  0.44495408  0.84305202  1
  Pr  Pr76  1  0.39809794  0.25858750  0.34305202  1
  Pr  Pr77  1  0.08446452  0.63951044  0.74141250  1
  Pr  Pr78  1  0.65694798  0.41553548  0.55504592  1
  Pr  Pr79  1  0.25858750  0.86048956  0.91553548  1
