# generated using pymatgen
data_DyTl2Rh
_symmetry_space_group_name_H-M   'P 1'
_cell_length_a   3.92826798
_cell_length_b   5.59944352
_cell_length_c   9.04327947
_cell_angle_alpha   90.00000000
_cell_angle_beta   90.00000000
_cell_angle_gamma   110.50438785
_symmetry_Int_Tables_number   1
_chemical_formula_structural   DyTl2Rh
_chemical_formula_sum   'Dy2 Tl4 Rh2'
_cell_volume   186.31469810
_cell_formula_units_Z   2
loop_
 _symmetry_equiv_pos_site_id
 _symmetry_equiv_pos_as_xyz
  1  'x, y, z'
loop_
 _atom_site_type_symbol
 _atom_site_label
 _atom_site_symmetry_multiplicity
 _atom_site_fract_x
 _atom_site_fract_y
 _atom_site_fract_z
 _atom_site_occupancy
  Tl  Tl0  1  0.35914232  0.71903127  0.95192772  1
  Tl  Tl1  1  0.64085768  0.28096873  0.04807228  1
  Tl  Tl2  1  0.64085768  0.28096873  0.45192772  1
  Tl  Tl3  1  0.35914232  0.71903127  0.54807228  1
  Rh  Rh4  1  0.76525014  0.52981367  0.75000000  1
  Rh  Rh5  1  0.23474986  0.47018633  0.25000000  1
  Dy  Dy6  1  0.07256745  0.14504946  0.75000000  1
  Dy  Dy7  1  0.92743255  0.85495054  0.25000000  1
