# generated using pymatgen
data_Tm4SiS2
_symmetry_space_group_name_H-M   'P 1'
_cell_length_a   7.51258155
_cell_length_b   7.51258253
_cell_length_c   7.51258243
_cell_angle_alpha   103.78090362
_cell_angle_beta   103.78091104
_cell_angle_gamma   121.57271897
_symmetry_Int_Tables_number   1
_chemical_formula_structural   Tm4SiS2
_chemical_formula_sum   'Tm8 Si2 S4'
_cell_volume   315.29197757
_cell_formula_units_Z   2
loop_
 _symmetry_equiv_pos_site_id
 _symmetry_equiv_pos_as_xyz
  1  'x, y, z'
loop_
 _atom_site_type_symbol
 _atom_site_label
 _atom_site_symmetry_multiplicity
 _atom_site_fract_x
 _atom_site_fract_y
 _atom_site_fract_z
 _atom_site_occupancy
  Tm  Tm0  1  0.20276050  0.86528188  0.25519184  1
  Tm  Tm1  1  0.05243134  0.79723950  0.66252138  1
  Tm  Tm2  1  0.61009005  0.94756866  0.74480816  1
  Tm  Tm3  1  0.13471812  0.38990995  0.33747862  1
  Tm  Tm4  1  0.54723950  0.30243134  0.16252138  1
  Tm  Tm5  1  0.69756866  0.86009005  0.24480816  1
  Tm  Tm6  1  0.13990995  0.38471812  0.83747862  1
  Tm  Tm7  1  0.61528188  0.45276050  0.75519184  1
  Si  Si8  1  0.75000000  0.25000000  0.50000000  1
  Si  Si9  1  0.00000000  0.00000000  0.00000000  1
  S  S10  1  0.87500000  0.40461903  0.02961903  1
  S  S11  1  0.15461903  0.12500000  0.52961903  1
  S  S12  1  0.37500000  0.84538097  0.97038097  1
  S  S13  1  0.59538097  0.62500000  0.47038097  1
