# generated using pymatgen
data_Tl2Zn
_symmetry_space_group_name_H-M   'P 1'
_cell_length_a   9.63358098
_cell_length_b   9.63412802
_cell_length_c   20.91622750
_cell_angle_alpha   90.00000000
_cell_angle_beta   90.00000000
_cell_angle_gamma   89.99999465
_symmetry_Int_Tables_number   1
_chemical_formula_structural   Tl2Zn
_chemical_formula_sum   'Tl16 Zn8'
_cell_volume   1941.25917923
_cell_formula_units_Z   8
loop_
 _symmetry_equiv_pos_site_id
 _symmetry_equiv_pos_as_xyz
  1  'x, y, z'
loop_
 _atom_site_type_symbol
 _atom_site_label
 _atom_site_symmetry_multiplicity
 _atom_site_fract_x
 _atom_site_fract_y
 _atom_site_fract_z
 _atom_site_occupancy
  Tl  Tl0  1  0.45936785  0.26751231  0.46048692  1
  Tl  Tl1  1  0.54063215  0.73248768  0.46048693  1
  Tl  Tl2  1  0.73249041  0.45936455  0.46048054  1
  Tl  Tl3  1  0.26750958  0.54063547  0.46048052  1
  Tl  Tl4  1  0.95936784  0.23248768  0.46048691  1
  Tl  Tl5  1  0.04063215  0.76751235  0.46048694  1
  Tl  Tl6  1  0.23249044  0.04063543  0.46048053  1
  Tl  Tl7  1  0.76750956  0.95936456  0.46048053  1
  Tl  Tl8  1  0.14342852  0.64340800  0.62900324  1
  Tl  Tl9  1  0.85657154  0.35659193  0.62900323  1
  Tl  Tl10  1  0.35657150  0.14340804  0.62900325  1
  Tl  Tl11  1  0.64342852  0.85659199  0.62900325  1
  Tl  Tl12  1  0.50000000  0.00000000  0.35695178  1
  Tl  Tl13  1  0.99999999  0.50000001  0.35695181  1
  Tl  Tl14  1  -0.00000000  0.99999999  0.34614978  1
  Tl  Tl15  1  0.50000000  0.49999999  0.34614979  1
  Zn  Zn16  1  0.68669707  0.18667653  0.55062216  1
  Zn  Zn17  1  0.31330296  0.81332344  0.55062218  1
  Zn  Zn18  1  0.81330293  0.68667653  0.55062215  1
  Zn  Zn19  1  0.18669709  0.31332344  0.55062214  1
  Zn  Zn20  1  0.50000000  0.00000000  0.52658101  1
  Zn  Zn21  1  0.00000001  0.49999998  0.52658100  1
  Zn  Zn22  1  0.99999996  0.00000009  0.56913169  1
  Zn  Zn23  1  0.49999993  0.50000000  0.56913168  1
