# generated using pymatgen
data_Mn2Cl
_symmetry_space_group_name_H-M   'P 1'
_cell_length_a   3.82098377
_cell_length_b   3.82095967
_cell_length_c   2.78220109
_cell_angle_alpha   90.00032088
_cell_angle_beta   90.00024247
_cell_angle_gamma   120.00038835
_symmetry_Int_Tables_number   1
_chemical_formula_structural   Mn2Cl
_chemical_formula_sum   'Mn2 Cl1'
_cell_volume   35.17751004
_cell_formula_units_Z   1
loop_
 _symmetry_equiv_pos_site_id
 _symmetry_equiv_pos_as_xyz
  1  'x, y, z'
loop_
 _atom_site_type_symbol
 _atom_site_label
 _atom_site_symmetry_multiplicity
 _atom_site_fract_x
 _atom_site_fract_y
 _atom_site_fract_z
 _atom_site_occupancy
  Cl  Cl0  1  0.99999712  0.99999926  0.99998985  1
  Mn  Mn1  1  0.66666797  0.33333964  0.22825652  1
  Mn  Mn2  1  0.33332492  0.66666110  0.77175363  1
