# generated using pymatgen
data_Dy4Zn2Cd
_symmetry_space_group_name_H-M   'P 1'
_cell_length_a   5.07539357
_cell_length_b   5.07539368
_cell_length_c   8.61043356
_cell_angle_alpha   72.85904102
_cell_angle_beta   72.85904059
_cell_angle_gamma   59.99997907
_symmetry_Int_Tables_number   1
_chemical_formula_structural   Dy4Zn2Cd
_chemical_formula_sum   'Dy4 Zn2 Cd1'
_cell_volume   180.62021992
_cell_formula_units_Z   1
loop_
 _symmetry_equiv_pos_site_id
 _symmetry_equiv_pos_as_xyz
  1  'x, y, z'
loop_
 _atom_site_type_symbol
 _atom_site_label
 _atom_site_symmetry_multiplicity
 _atom_site_fract_x
 _atom_site_fract_y
 _atom_site_fract_z
 _atom_site_occupancy
  Dy  Dy0  1  0.86857931  0.86857931  0.39426308  1
  Dy  Dy1  1  0.13142069  0.13142069  0.60573692  1
  Dy  Dy2  1  0.61554396  0.61554396  0.15336813  1
  Dy  Dy3  1  0.38445604  0.38445604  0.84663187  1
  Zn  Zn4  1  0.74561051  0.74561051  0.76316948  1
  Zn  Zn5  1  0.25438949  0.25438949  0.23683052  1
  Cd  Cd6  1  0.00000000  0.00000000  0.00000000  1
