# generated using pymatgen
data_TlAgAs
_symmetry_space_group_name_H-M   'P 1'
_cell_length_a   7.05210013
_cell_length_b   7.05134944
_cell_length_c   3.24119144
_cell_angle_alpha   76.72671064
_cell_angle_beta   76.70086581
_cell_angle_gamma   26.57242329
_symmetry_Int_Tables_number   1
_chemical_formula_structural   TlAgAs
_chemical_formula_sum   'Tl1 Ag1 As1'
_cell_volume   70.05886219
_cell_formula_units_Z   1
loop_
 _symmetry_equiv_pos_site_id
 _symmetry_equiv_pos_as_xyz
  1  'x, y, z'
loop_
 _atom_site_type_symbol
 _atom_site_label
 _atom_site_symmetry_multiplicity
 _atom_site_fract_x
 _atom_site_fract_y
 _atom_site_fract_z
 _atom_site_occupancy
  Tl  Tl0  1  0.66160456  0.66160456  0.33839544  1
  As  As1  1  0.36045073  0.36045073  0.63954927  1
  Ag  Ag2  1  0.97794471  0.97794471  0.02205529  1
