# generated using pymatgen
data_NdGa4CoPt2
_symmetry_space_group_name_H-M   'P 1'
_cell_length_a   4.25534252
_cell_length_b   4.25534252
_cell_length_c   9.10027722
_cell_angle_alpha   76.47893132
_cell_angle_beta   76.47893130
_cell_angle_gamma   59.99999997
_symmetry_Int_Tables_number   1
_chemical_formula_structural   NdGa4CoPt2
_chemical_formula_sum   'Nd1 Ga4 Co1 Pt2'
_cell_volume   137.41086957
_cell_formula_units_Z   1
loop_
 _symmetry_equiv_pos_site_id
 _symmetry_equiv_pos_as_xyz
  1  'x, y, z'
loop_
 _atom_site_type_symbol
 _atom_site_label
 _atom_site_symmetry_multiplicity
 _atom_site_fract_x
 _atom_site_fract_y
 _atom_site_fract_z
 _atom_site_occupancy
  Nd  Nd0  1  0.00000000  0.00000000  0.00000000  1
  Ga  Ga1  1  0.40209134  0.40209134  0.79372598  1
  Ga  Ga2  1  0.86518242  0.86518242  0.40445274  1
  Ga  Ga3  1  0.13481758  0.13481758  0.59554726  1
  Ga  Ga4  1  0.59790866  0.59790866  0.20627402  1
  Co  Co5  1  0.50000000  0.50000000  0.50000000  1
  Pt  Pt6  1  0.76540533  0.76540533  0.70378400  1
  Pt  Pt7  1  0.23459467  0.23459467  0.29621600  1
