# generated using pymatgen
data_K(Na2As)2
_symmetry_space_group_name_H-M   'P 1'
_cell_length_a   4.95945037
_cell_length_b   9.01918546
_cell_length_c   9.01918546
_cell_angle_alpha   90.00000000
_cell_angle_beta   90.00000000
_cell_angle_gamma   90.00000000
_symmetry_Int_Tables_number   1
_chemical_formula_structural   K(Na2As)2
_chemical_formula_sum   'K2 Na8 As4'
_cell_volume   403.42999351
_cell_formula_units_Z   2
loop_
 _symmetry_equiv_pos_site_id
 _symmetry_equiv_pos_as_xyz
  1  'x, y, z'
loop_
 _atom_site_type_symbol
 _atom_site_label
 _atom_site_symmetry_multiplicity
 _atom_site_fract_x
 _atom_site_fract_y
 _atom_site_fract_z
 _atom_site_occupancy
  K  K0  1  0.50000000  0.00000000  0.00000000  1
  K  K1  1  0.00000000  0.50000000  0.50000000  1
  Na  Na2  1  0.00000000  0.08959897  0.32487131  1
  Na  Na3  1  0.00000000  0.91040103  0.67512869  1
  Na  Na4  1  0.50000000  0.17512869  0.58959897  1
  Na  Na5  1  0.50000000  0.82487131  0.41040103  1
  Na  Na6  1  0.50000000  0.41040103  0.82487131  1
  Na  Na7  1  0.50000000  0.58959897  0.17512869  1
  Na  Na8  1  0.00000000  0.32487131  0.08959897  1
  Na  Na9  1  0.00000000  0.67512869  0.91040103  1
  As  As10  1  0.00000000  0.22789134  0.77210866  1
  As  As11  1  0.00000000  0.77210866  0.22789134  1
  As  As12  1  0.50000000  0.72789134  0.72789134  1
  As  As13  1  0.50000000  0.27210866  0.27210866  1
