# generated using pymatgen
data_ZrBWSe
_symmetry_space_group_name_H-M   'P 1'
_cell_length_a   5.70706477
_cell_length_b   3.27337091
_cell_length_c   8.69565318
_cell_angle_alpha   90.00000000
_cell_angle_beta   127.12989349
_cell_angle_gamma   90.00000000
_symmetry_Int_Tables_number   1
_chemical_formula_structural   ZrBWSe
_chemical_formula_sum   'Zr2 B2 W2 Se2'
_cell_volume   129.51353686
_cell_formula_units_Z   2
loop_
 _symmetry_equiv_pos_site_id
 _symmetry_equiv_pos_as_xyz
  1  'x, y, z'
loop_
 _atom_site_type_symbol
 _atom_site_label
 _atom_site_symmetry_multiplicity
 _atom_site_fract_x
 _atom_site_fract_y
 _atom_site_fract_z
 _atom_site_occupancy
  B  B0  1  0.74698988  0.00000000  0.35946479  1
  B  B1  1  0.74698988  0.50000000  0.85946479  1
  Se  Se2  1  0.19296527  0.00000000  0.81959292  1
  Se  Se3  1  0.19296527  0.50000000  0.31959292  1
  Zr  Zr4  1  0.61456890  0.00000000  0.60790081  1
  Zr  Zr5  1  0.61456890  0.50000000  0.10790081  1
  W  W6  1  0.04561595  0.00000000  0.04641148  1
  W  W7  1  0.04561595  0.50000000  0.54641148  1
