# generated using pymatgen
data_Tb2CeHf
_symmetry_space_group_name_H-M   'P 1'
_cell_length_a   3.39187461
_cell_length_b   3.39187461
_cell_length_c   11.49629498
_cell_angle_alpha   81.51674635
_cell_angle_beta   81.51674636
_cell_angle_gamma   60.00000008
_symmetry_Int_Tables_number   1
_chemical_formula_structural   Tb2CeHf
_chemical_formula_sum   'Tb2 Ce1 Hf1'
_cell_volume   112.86884240
_cell_formula_units_Z   1
loop_
 _symmetry_equiv_pos_site_id
 _symmetry_equiv_pos_as_xyz
  1  'x, y, z'
loop_
 _atom_site_type_symbol
 _atom_site_label
 _atom_site_symmetry_multiplicity
 _atom_site_fract_x
 _atom_site_fract_y
 _atom_site_fract_z
 _atom_site_occupancy
  Tb  Tb0  1  0.07784114  0.07784114  0.76647657  1
  Tb  Tb1  1  0.25545824  0.25545824  0.23362528  1
  Ce  Ce2  1  0.50015420  0.50015420  0.49953740  1
  Hf  Hf3  1  0.66654641  0.66654641  0.00035976  1
