# generated using pymatgen
data_CoW3
_symmetry_space_group_name_H-M   'P 1'
_cell_length_a   2.75878864
_cell_length_b   2.75878864
_cell_length_c   9.34258519
_cell_angle_alpha   81.50947120
_cell_angle_beta   81.50947118
_cell_angle_gamma   60.00000004
_symmetry_Int_Tables_number   1
_chemical_formula_structural   CoW3
_chemical_formula_sum   'Co1 W3'
_cell_volume   60.67774969
_cell_formula_units_Z   1
loop_
 _symmetry_equiv_pos_site_id
 _symmetry_equiv_pos_as_xyz
  1  'x, y, z'
loop_
 _atom_site_type_symbol
 _atom_site_label
 _atom_site_symmetry_multiplicity
 _atom_site_fract_x
 _atom_site_fract_y
 _atom_site_fract_z
 _atom_site_occupancy
  Co  Co0  1  0.00000000  0.00000000  0.00000000  1
  W  W1  1  0.74327036  0.74327036  0.77018892  1
  W  W2  1  0.50000000  0.50000000  0.50000000  1
  W  W3  1  0.25672964  0.25672964  0.22981108  1
