# generated using pymatgen
data_UTe2Pb
_symmetry_space_group_name_H-M   'P 1'
_cell_length_a   4.12078328
_cell_length_b   4.12078329
_cell_length_c   11.30112585
_cell_angle_alpha   56.88005051
_cell_angle_beta   56.88005051
_cell_angle_gamma   60.02054411
_symmetry_Int_Tables_number   1
_chemical_formula_structural   UTe2Pb
_chemical_formula_sum   'U1 Te2 Pb1'
_cell_volume   128.95796064
_cell_formula_units_Z   1
loop_
 _symmetry_equiv_pos_site_id
 _symmetry_equiv_pos_as_xyz
  1  'x, y, z'
loop_
 _atom_site_type_symbol
 _atom_site_label
 _atom_site_symmetry_multiplicity
 _atom_site_fract_x
 _atom_site_fract_y
 _atom_site_fract_z
 _atom_site_occupancy
  Pb  Pb0  1  0.50000000  0.50000000  0.50000000  1
  Te  Te1  1  0.89086849  0.89086849  0.77557760  1
  Te  Te2  1  0.10913151  0.10913151  0.22442240  1
  U  U3  1  0.00000000  0.00000000  0.00000000  1
