# generated using pymatgen
data_UP2Os
_symmetry_space_group_name_H-M   'P 1'
_cell_length_a   3.72440340
_cell_length_b   3.72440340
_cell_length_c   6.26921624
_cell_angle_alpha   72.72015516
_cell_angle_beta   72.72015514
_cell_angle_gamma   60.00000001
_symmetry_Int_Tables_number   1
_chemical_formula_structural   UP2Os
_chemical_formula_sum   'U1 P2 Os1'
_cell_volume   70.74235391
_cell_formula_units_Z   1
loop_
 _symmetry_equiv_pos_site_id
 _symmetry_equiv_pos_as_xyz
  1  'x, y, z'
loop_
 _atom_site_type_symbol
 _atom_site_label
 _atom_site_symmetry_multiplicity
 _atom_site_fract_x
 _atom_site_fract_y
 _atom_site_fract_z
 _atom_site_occupancy
  U  U0  1  0.67019133  0.67019133  0.98942501  1
  P  P1  1  0.10179135  0.10179135  0.69462595  1
  P  P2  1  0.23923746  0.23923746  0.28228763  1
  Os  Os3  1  0.48877986  0.48877986  0.53366041  1
