# generated using pymatgen
data_Na3Cr2RhO6
_symmetry_space_group_name_H-M   'P 1'
_cell_length_a   5.30868875
_cell_length_b   5.30868874
_cell_length_c   5.63649178
_cell_angle_alpha   99.01674385
_cell_angle_beta   99.01674393
_cell_angle_gamma   119.97599219
_symmetry_Int_Tables_number   1
_chemical_formula_structural   Na3Cr2RhO6
_chemical_formula_sum   'Na3 Cr2 Rh1 O6'
_cell_volume   130.67112802
_cell_formula_units_Z   1
loop_
 _symmetry_equiv_pos_site_id
 _symmetry_equiv_pos_as_xyz
  1  'x, y, z'
loop_
 _atom_site_type_symbol
 _atom_site_label
 _atom_site_symmetry_multiplicity
 _atom_site_fract_x
 _atom_site_fract_y
 _atom_site_fract_z
 _atom_site_occupancy
  Na  Na0  1  0.16350252  0.83649748  0.50000000  1
  Na  Na1  1  0.83649748  0.16350252  0.50000000  1
  Na  Na2  1  0.50000000  0.50000000  0.50000000  1
  Cr  Cr3  1  0.33317061  0.66682939  0.00000000  1
  Cr  Cr4  1  0.66682939  0.33317061  0.00000000  1
  Rh  Rh5  1  0.00000000  0.00000000  0.00000000  1
  O  O6  1  0.93305104  0.59183526  0.79922007  1
  O  O7  1  0.72540063  0.72540063  0.20046301  1
  O  O8  1  0.06694896  0.40816474  0.20077993  1
  O  O9  1  0.59183526  0.93305104  0.79922007  1
  O  O10  1  0.27459937  0.27459937  0.79953699  1
  O  O11  1  0.40816474  0.06694896  0.20077993  1
