# generated using pymatgen
data_NaSi
_symmetry_space_group_name_H-M   'P 1'
_cell_length_a   7.78896442
_cell_length_b   3.76667682
_cell_length_c   11.37444108
_cell_angle_alpha   90.00000000
_cell_angle_beta   133.42059542
_cell_angle_gamma   90.00000000
_symmetry_Int_Tables_number   1
_chemical_formula_structural   NaSi
_chemical_formula_sum   'Na4 Si4'
_cell_volume   242.38219763
_cell_formula_units_Z   4
loop_
 _symmetry_equiv_pos_site_id
 _symmetry_equiv_pos_as_xyz
  1  'x, y, z'
loop_
 _atom_site_type_symbol
 _atom_site_label
 _atom_site_symmetry_multiplicity
 _atom_site_fract_x
 _atom_site_fract_y
 _atom_site_fract_z
 _atom_site_occupancy
  Na  Na0  1  0.60773396  0.00000000  0.65810609  1
  Na  Na1  1  0.60773396  0.50000000  0.15810609  1
  Na  Na2  1  0.10843357  0.00000000  0.65984879  1
  Na  Na3  1  0.10843357  0.50000000  0.15984879  1
  Si  Si4  1  0.19011402  0.00000000  0.99254670  1
  Si  Si5  1  0.19011402  0.50000000  0.49254670  1
  Si  Si6  1  0.02531845  0.00000000  0.32661842  1
  Si  Si7  1  0.02531845  0.50000000  0.82661842  1
