# generated using pymatgen
data_Pd2PtS2
_symmetry_space_group_name_H-M   'P 1'
_cell_length_a   7.10655508
_cell_length_b   7.10655508
_cell_length_c   3.10098324
_cell_angle_alpha   90.00000000
_cell_angle_beta   90.00000000
_cell_angle_gamma   90.00000000
_symmetry_Int_Tables_number   1
_chemical_formula_structural   Pd2PtS2
_chemical_formula_sum   'Pd4 Pt2 S4'
_cell_volume   156.60934452
_cell_formula_units_Z   2
loop_
 _symmetry_equiv_pos_site_id
 _symmetry_equiv_pos_as_xyz
  1  'x, y, z'
loop_
 _atom_site_type_symbol
 _atom_site_label
 _atom_site_symmetry_multiplicity
 _atom_site_fract_x
 _atom_site_fract_y
 _atom_site_fract_z
 _atom_site_occupancy
  S  S0  1  0.16272059  0.66272059  0.50000000  1
  S  S1  1  0.66272059  0.83727941  0.50000000  1
  S  S2  1  0.83727941  0.33727941  0.50000000  1
  S  S3  1  0.33727941  0.16272059  0.50000000  1
  Pd  Pd4  1  0.35375570  0.85375570  0.00000000  1
  Pd  Pd5  1  0.85375570  0.64624430  0.00000000  1
  Pd  Pd6  1  0.64624430  0.14624430  0.00000000  1
  Pd  Pd7  1  0.14624430  0.35375570  0.00000000  1
  Pt  Pt8  1  0.00000000  0.00000000  0.00000000  1
  Pt  Pt9  1  0.50000000  0.50000000  0.00000000  1
