# generated using pymatgen
data_CsCuS
_symmetry_space_group_name_H-M   'P 1'
_cell_length_a   5.47832951
_cell_length_b   4.05145350
_cell_length_c   4.05145350
_cell_angle_alpha   120.00000002
_cell_angle_beta   90.00000000
_cell_angle_gamma   90.00000000
_symmetry_Int_Tables_number   1
_chemical_formula_structural   CsCuS
_chemical_formula_sum   'Cs1 Cu1 S1'
_cell_volume   77.87543747
_cell_formula_units_Z   1
loop_
 _symmetry_equiv_pos_site_id
 _symmetry_equiv_pos_as_xyz
  1  'x, y, z'
loop_
 _atom_site_type_symbol
 _atom_site_label
 _atom_site_symmetry_multiplicity
 _atom_site_fract_x
 _atom_site_fract_y
 _atom_site_fract_z
 _atom_site_occupancy
  Cs  Cs0  1  0.66676998  0.66666667  0.33333333  1
  S  S1  1  0.16669898  0.00000000  0.00000000  1
  Cu  Cu2  1  0.16653104  0.33333333  0.66666667  1
