# generated using pymatgen
data_Ce4Re6O19
_symmetry_space_group_name_H-M   'P 1'
_cell_length_a   7.87765552
_cell_length_b   7.87765552
_cell_length_c   7.87765552
_cell_angle_alpha   109.47122068
_cell_angle_beta   109.47122060
_cell_angle_gamma   109.47122061
_symmetry_Int_Tables_number   1
_chemical_formula_structural   Ce4Re6O19
_chemical_formula_sum   'Ce4 Re6 O19'
_cell_volume   376.33019591
_cell_formula_units_Z   1
loop_
 _symmetry_equiv_pos_site_id
 _symmetry_equiv_pos_as_xyz
  1  'x, y, z'
loop_
 _atom_site_type_symbol
 _atom_site_label
 _atom_site_symmetry_multiplicity
 _atom_site_fract_x
 _atom_site_fract_y
 _atom_site_fract_z
 _atom_site_occupancy
  Ce  Ce0  1  0.69344493  0.69344493  0.69344493  1
  Ce  Ce1  1  0.30655507  0.00000000  0.00000000  1
  Ce  Ce2  1  -0.00000000  0.30655507  0.00000000  1
  Ce  Ce3  1  -0.00000000  -0.00000000  0.30655507  1
  Re  Re4  1  0.36657995  0.86657995  0.50000000  1
  Re  Re5  1  0.63342005  0.13342005  0.50000000  1
  Re  Re6  1  0.86657995  0.50000000  0.36657995  1
  Re  Re7  1  0.13342005  0.50000000  0.63342005  1
  Re  Re8  1  0.50000000  0.36657995  0.86657995  1
  Re  Re9  1  0.50000000  0.63342005  0.13342005  1
  O  O10  1  0.68299234  0.68299234  0.00000000  1
  O  O11  1  0.31700766  0.31700766  0.00000000  1
  O  O12  1  0.68299234  -0.00000000  0.68299234  1
  O  O13  1  0.31700766  -0.00000000  0.31700766  1
  O  O14  1  -0.00000000  0.68299234  0.68299234  1
  O  O15  1  0.00000000  0.31700766  0.31700766  1
  O  O16  1  0.00000000  0.00000000  0.00000000  1
  O  O17  1  0.33689597  0.62160166  0.27919633  1
  O  O18  1  0.66310403  0.94229936  0.28470470  1
  O  O19  1  0.65759466  0.37839834  0.71529530  1
  O  O20  1  0.62160166  0.27919633  0.33689597  1
  O  O21  1  0.34240534  0.05770064  0.72080367  1
  O  O22  1  0.94229936  0.28470470  0.66310403  1
  O  O23  1  0.37839834  0.71529530  0.65759466  1
  O  O24  1  0.05770064  0.72080367  0.34240534  1
  O  O25  1  0.27919633  0.33689597  0.62160166  1
  O  O26  1  0.71529530  0.65759466  0.37839834  1
  O  O27  1  0.72080367  0.34240534  0.05770064  1
  O  O28  1  0.28470470  0.66310403  0.94229936  1
