# generated using pymatgen
data_Tb8SnBi3Te4
_symmetry_space_group_name_H-M   'P 1'
_cell_length_a   8.88237640
_cell_length_b   8.84701828
_cell_length_c   8.88227504
_cell_angle_alpha   120.12413812
_cell_angle_beta   120.00037749
_cell_angle_gamma   90.00000000
_symmetry_Int_Tables_number   1
_chemical_formula_structural   Tb8SnBi3Te4
_chemical_formula_sum   'Tb8 Sn1 Bi3 Te4'
_cell_volume   492.62379835
_cell_formula_units_Z   1
loop_
 _symmetry_equiv_pos_site_id
 _symmetry_equiv_pos_as_xyz
  1  'x, y, z'
loop_
 _atom_site_type_symbol
 _atom_site_label
 _atom_site_symmetry_multiplicity
 _atom_site_fract_x
 _atom_site_fract_y
 _atom_site_fract_z
 _atom_site_occupancy
  Tb  Tb0  1  0.24411177  0.74301564  0.99894485  1
  Tb  Tb1  1  0.24399224  0.74293220  0.48798449  1
  Tb  Tb2  1  0.25079107  0.25248127  0.50158214  1
  Tb  Tb3  1  0.75483307  0.74301564  0.99894485  1
  Tb  Tb4  1  0.24516693  0.25698436  0.00105515  1
  Tb  Tb5  1  0.74920893  0.74751873  0.49841786  1
  Tb  Tb6  1  0.75600776  0.25706780  0.51201551  1
  Tb  Tb7  1  0.75588823  0.25698436  0.00105515  1
  Sn  Sn8  1  0.00000000  0.50000000  0.00000000  1
  Bi  Bi9  1  0.50000000  0.50000000  0.00000000  1
  Bi  Bi10  1  0.50000000  0.50000000  0.50000000  1
  Bi  Bi11  1  -0.00000000  0.50000000  0.50000000  1
  Te  Te12  1  0.50000000  0.00000000  0.00000000  1
  Te  Te13  1  0.50000000  0.00000000  0.50000000  1
  Te  Te14  1  0.00000000  0.00000000  0.00000000  1
  Te  Te15  1  -0.00000000  0.00000000  0.50000000  1
