# generated using pymatgen
data_AgH3Rh
_symmetry_space_group_name_H-M   'P 1'
_cell_length_a   3.65320542
_cell_length_b   3.65320543
_cell_length_c   3.65320543
_cell_angle_alpha   84.41848202
_cell_angle_beta   84.41848196
_cell_angle_gamma   84.41848196
_symmetry_Int_Tables_number   1
_chemical_formula_structural   AgH3Rh
_chemical_formula_sum   'Ag1 H3 Rh1'
_cell_volume   48.10403003
_cell_formula_units_Z   1
loop_
 _symmetry_equiv_pos_site_id
 _symmetry_equiv_pos_as_xyz
  1  'x, y, z'
loop_
 _atom_site_type_symbol
 _atom_site_label
 _atom_site_symmetry_multiplicity
 _atom_site_fract_x
 _atom_site_fract_y
 _atom_site_fract_z
 _atom_site_occupancy
  H  H0  1  0.69869744  0.06437905  0.69869744  1
  H  H1  1  0.06437905  0.69869744  0.69869744  1
  H  H2  1  0.69869744  0.69869744  0.06437905  1
  Rh  Rh3  1  0.99806835  0.99806835  0.99806835  1
  Ag  Ag4  1  0.41515773  0.41515773  0.41515773  1
