# generated using pymatgen
data_TmAg(PbS2)2
_symmetry_space_group_name_H-M   'P 1'
_cell_length_a   4.04947305
_cell_length_b   7.15371574
_cell_length_c   6.98673862
_cell_angle_alpha   70.73557579
_cell_angle_beta   89.99971774
_cell_angle_gamma   89.99967778
_symmetry_Int_Tables_number   1
_chemical_formula_structural   TmAg(PbS2)2
_chemical_formula_sum   'Tm1 Ag1 Pb2 S4'
_cell_volume   191.06425195
_cell_formula_units_Z   1
loop_
 _symmetry_equiv_pos_site_id
 _symmetry_equiv_pos_as_xyz
  1  'x, y, z'
loop_
 _atom_site_type_symbol
 _atom_site_label
 _atom_site_symmetry_multiplicity
 _atom_site_fract_x
 _atom_site_fract_y
 _atom_site_fract_z
 _atom_site_occupancy
  Tm  Tm0  1  0.00000050  0.49999400  0.50000450  1
  Ag  Ag1  1  0.49999900  0.50000150  0.99999950  1
  Pb  Pb2  1  0.00000000  0.00000100  0.99999900  1
  Pb  Pb3  1  0.50000000  0.00000100  0.49999900  1
  S  S4  1  0.00000300  0.72430326  0.75051905  1
  S  S5  1  0.99999600  0.27569824  0.24947945  1
  S  S6  1  0.50000200  0.72485919  0.26862659  1
  S  S7  1  0.49999700  0.27514181  0.73137241  1
