# generated using pymatgen
data_LiTaN2
_symmetry_space_group_name_H-M   'P 1'
_cell_length_a   3.09160493
_cell_length_b   3.09160493
_cell_length_c   5.64831538
_cell_angle_alpha   74.11693426
_cell_angle_beta   74.11693427
_cell_angle_gamma   60.00000010
_symmetry_Int_Tables_number   1
_chemical_formula_structural   LiTaN2
_chemical_formula_sum   'Li1 Ta1 N2'
_cell_volume   44.35796600
_cell_formula_units_Z   1
loop_
 _symmetry_equiv_pos_site_id
 _symmetry_equiv_pos_as_xyz
  1  'x, y, z'
loop_
 _atom_site_type_symbol
 _atom_site_label
 _atom_site_symmetry_multiplicity
 _atom_site_fract_x
 _atom_site_fract_y
 _atom_site_fract_z
 _atom_site_occupancy
  Li  Li0  1  0.48888064  0.48888064  0.53335808  1
  Ta  Ta1  1  0.66888082  0.66888082  0.99335654  1
  N  N2  1  0.07428353  0.07428353  0.77714940  1
  N  N3  1  0.26795501  0.26795501  0.19613498  1
