# generated using pymatgen
data_La3(MgPd2)2
_symmetry_space_group_name_H-M   'P 1'
_cell_length_a   4.28571283
_cell_length_b   6.51163690
_cell_length_c   9.17055908
_cell_angle_alpha   115.94604688
_cell_angle_beta   90.00000000
_cell_angle_gamma   109.21300940
_symmetry_Int_Tables_number   1
_chemical_formula_structural   La3(MgPd2)2
_chemical_formula_sum   'La3 Mg2 Pd4'
_cell_volume   214.16291072
_cell_formula_units_Z   1
loop_
 _symmetry_equiv_pos_site_id
 _symmetry_equiv_pos_as_xyz
  1  'x, y, z'
loop_
 _atom_site_type_symbol
 _atom_site_label
 _atom_site_symmetry_multiplicity
 _atom_site_fract_x
 _atom_site_fract_y
 _atom_site_fract_z
 _atom_site_occupancy
  La  La0  1  0.63253166  0.26506231  0.70658190  1
  La  La1  1  0.00000000  0.00000000  0.00000000  1
  La  La2  1  0.36746834  0.73493769  0.29341810  1
  Mg  Mg3  1  0.67557750  0.35115600  0.35045251  1
  Mg  Mg4  1  0.32442250  0.64884400  0.64954749  1
  Pd  Pd5  1  0.70291588  0.40583076  0.06880893  1
  Pd  Pd6  1  0.29708412  0.59416924  0.93119107  1
  Pd  Pd7  1  0.92685183  0.85370367  0.58437763  1
  Pd  Pd8  1  0.07314817  0.14629633  0.41562237  1
