# generated using pymatgen
data_Mg2Be2AlRh5
_symmetry_space_group_name_H-M   'P 1'
_cell_length_a   3.02699418
_cell_length_b   9.43090803
_cell_length_c   9.43090803
_cell_angle_alpha   90.00000000
_cell_angle_beta   90.00000000
_cell_angle_gamma   90.00000000
_symmetry_Int_Tables_number   1
_chemical_formula_structural   Mg2Be2AlRh5
_chemical_formula_sum   'Mg4 Be4 Al2 Rh10'
_cell_volume   269.22699588
_cell_formula_units_Z   2
loop_
 _symmetry_equiv_pos_site_id
 _symmetry_equiv_pos_as_xyz
  1  'x, y, z'
loop_
 _atom_site_type_symbol
 _atom_site_label
 _atom_site_symmetry_multiplicity
 _atom_site_fract_x
 _atom_site_fract_y
 _atom_site_fract_z
 _atom_site_occupancy
  Mg  Mg0  1  0.00000000  0.67427388  0.17427388  1
  Mg  Mg1  1  0.00000000  0.32572612  0.82572612  1
  Mg  Mg2  1  0.00000000  0.17427388  0.32572612  1
  Mg  Mg3  1  0.00000000  0.82572612  0.67427388  1
  Be  Be4  1  0.00000000  0.12546729  0.62546729  1
  Be  Be5  1  0.00000000  0.87453271  0.37453271  1
  Be  Be6  1  0.00000000  0.62546729  0.87453271  1
  Be  Be7  1  0.00000000  0.37453271  0.12546729  1
  Al  Al8  1  0.00000000  0.00000000  0.00000000  1
  Al  Al9  1  0.00000000  0.50000000  0.50000000  1
  Rh  Rh10  1  0.50000000  0.20630263  0.07002781  1
  Rh  Rh11  1  0.50000000  0.79369737  0.92997219  1
  Rh  Rh12  1  0.50000000  0.07002781  0.79369737  1
  Rh  Rh13  1  0.50000000  0.70630263  0.42997219  1
  Rh  Rh14  1  0.50000000  0.92997219  0.20630263  1
  Rh  Rh15  1  0.50000000  0.29369737  0.57002781  1
  Rh  Rh16  1  0.50000000  0.57002781  0.70630263  1
  Rh  Rh17  1  0.50000000  0.42997219  0.29369737  1
  Rh  Rh18  1  0.50000000  0.50000000  0.00000000  1
  Rh  Rh19  1  0.50000000  0.00000000  0.50000000  1
