# generated using pymatgen
data_MgAuI2N
_symmetry_space_group_name_H-M   'P 1'
_cell_length_a   5.79750446
_cell_length_b   5.79750446
_cell_length_c   4.05755893
_cell_angle_alpha   90.00000000
_cell_angle_beta   90.00000000
_cell_angle_gamma   90.00000000
_symmetry_Int_Tables_number   1
_chemical_formula_structural   MgAuI2N
_chemical_formula_sum   'Mg1 Au1 I2 N1'
_cell_volume   136.37884839
_cell_formula_units_Z   1
loop_
 _symmetry_equiv_pos_site_id
 _symmetry_equiv_pos_as_xyz
  1  'x, y, z'
loop_
 _atom_site_type_symbol
 _atom_site_label
 _atom_site_symmetry_multiplicity
 _atom_site_fract_x
 _atom_site_fract_y
 _atom_site_fract_z
 _atom_site_occupancy
  I  I0  1  0.00000000  0.50000000  0.00000000  1
  I  I1  1  0.50000000  0.00000000  0.00000000  1
  Mg  Mg2  1  0.00000000  0.00000000  0.00000000  1
  Au  Au3  1  0.50000000  0.50000000  0.50000000  1
  N  N4  1  0.00000000  0.00000000  0.50000000  1
