# generated using pymatgen
data_Er2Zn2Ge2C
_symmetry_space_group_name_H-M   'P 1'
_cell_length_a   3.80665360
_cell_length_b   5.83366977
_cell_length_c   6.34779343
_cell_angle_alpha   73.37641947
_cell_angle_beta   72.96162430
_cell_angle_gamma   71.07246077
_symmetry_Int_Tables_number   1
_chemical_formula_structural   Er2Zn2Ge2C
_chemical_formula_sum   'Er2 Zn2 Ge2 C1'
_cell_volume   124.61280581
_cell_formula_units_Z   1
loop_
 _symmetry_equiv_pos_site_id
 _symmetry_equiv_pos_as_xyz
  1  'x, y, z'
loop_
 _atom_site_type_symbol
 _atom_site_label
 _atom_site_symmetry_multiplicity
 _atom_site_fract_x
 _atom_site_fract_y
 _atom_site_fract_z
 _atom_site_occupancy
  C  C0  1  0.00000000  0.00000000  0.00000000  1
  Ge  Ge1  1  0.13914752  0.37032215  0.35288400  1
  Ge  Ge2  1  0.86085248  0.62967785  0.64711600  1
  Zn  Zn3  1  0.20802591  0.66975617  0.91480466  1
  Zn  Zn4  1  0.79197409  0.33024383  0.08519534  1
  Er  Er5  1  0.55699839  0.15278180  0.73285410  1
  Er  Er6  1  0.44300161  0.84721820  0.26714590  1
