# generated using pymatgen
data_NpTl2CrO8
_symmetry_space_group_name_H-M   'P 1'
_cell_length_a   5.13881443
_cell_length_b   5.13251646
_cell_length_c   6.50616450
_cell_angle_alpha   89.99998136
_cell_angle_beta   90.00058568
_cell_angle_gamma   93.47966226
_symmetry_Int_Tables_number   1
_chemical_formula_structural   NpTl2CrO8
_chemical_formula_sum   'Np1 Tl2 Cr1 O8'
_cell_volume   171.28405033
_cell_formula_units_Z   1
loop_
 _symmetry_equiv_pos_site_id
 _symmetry_equiv_pos_as_xyz
  1  'x, y, z'
loop_
 _atom_site_type_symbol
 _atom_site_label
 _atom_site_symmetry_multiplicity
 _atom_site_fract_x
 _atom_site_fract_y
 _atom_site_fract_z
 _atom_site_occupancy
  Np  Np0  1  0.00000000  0.00000000  0.00000000  1
  Tl  Tl1  1  0.49998826  0.50000229  0.73876018  1
  Tl  Tl2  1  0.50001174  0.49999771  0.26123982  1
  Cr  Cr3  1  0.00000000  0.00000000  0.50000000  1
  O  O4  1  0.16635586  0.83174412  0.24204924  1
  O  O5  1  0.70351991  0.70555188  0.99999527  1
  O  O6  1  0.83363913  0.16825243  0.24205066  1
  O  O7  1  0.83364414  0.16825588  0.75795076  1
  O  O8  1  0.29648009  0.29444812  0.00000473  1
  O  O9  1  0.16636087  0.83174757  0.75794934  1
  O  O10  1  0.71425679  0.71682468  0.50000248  1
  O  O11  1  0.28574321  0.28317532  0.49999752  1
