# generated using pymatgen
data_PaHgTeO6
_symmetry_space_group_name_H-M   'P 1'
_cell_length_a   5.73651445
_cell_length_b   5.73651445
_cell_length_c   9.79859557
_cell_angle_alpha   90.00000000
_cell_angle_beta   90.00000000
_cell_angle_gamma   120.00000006
_symmetry_Int_Tables_number   1
_chemical_formula_structural   PaHgTeO6
_chemical_formula_sum   'Pa2 Hg2 Te2 O12'
_cell_volume   279.24837083
_cell_formula_units_Z   2
loop_
 _symmetry_equiv_pos_site_id
 _symmetry_equiv_pos_as_xyz
  1  'x, y, z'
loop_
 _atom_site_type_symbol
 _atom_site_label
 _atom_site_symmetry_multiplicity
 _atom_site_fract_x
 _atom_site_fract_y
 _atom_site_fract_z
 _atom_site_occupancy
  Pa  Pa0  1  0.33333333  0.66666667  0.25000000  1
  Pa  Pa1  1  0.66666667  0.33333333  0.75000000  1
  Hg  Hg2  1  0.00000000  0.00000000  0.00000000  1
  Hg  Hg3  1  0.00000000  0.00000000  0.50000000  1
  Te  Te4  1  0.66666667  0.33333333  0.25000000  1
  Te  Te5  1  0.33333333  0.66666667  0.75000000  1
  O  O6  1  0.64748795  0.62651025  0.13859135  1
  O  O7  1  0.97902230  0.35251105  0.13859135  1
  O  O8  1  0.35251205  0.97902330  0.63859135  1
  O  O9  1  0.02097770  0.64748895  0.86140865  1
  O  O10  1  0.37348875  0.35251105  0.36140865  1
  O  O11  1  0.97902230  0.62651025  0.36140865  1
  O  O12  1  0.62651125  0.97902330  0.86140865  1
  O  O13  1  0.64748795  0.02097670  0.36140865  1
  O  O14  1  0.02097770  0.37348975  0.63859135  1
  O  O15  1  0.37348875  0.02097670  0.13859135  1
  O  O16  1  0.62651125  0.64748895  0.63859135  1
  O  O17  1  0.35251205  0.37348975  0.86140865  1
