# generated using pymatgen
data_UFe2Sn
_symmetry_space_group_name_H-M   'P 1'
_cell_length_a   4.66388488
_cell_length_b   4.66388487
_cell_length_c   7.73828627
_cell_angle_alpha   90.00000000
_cell_angle_beta   90.00000000
_cell_angle_gamma   120.00000004
_symmetry_Int_Tables_number   1
_chemical_formula_structural   UFe2Sn
_chemical_formula_sum   'U2 Fe4 Sn2'
_cell_volume   145.77097785
_cell_formula_units_Z   2
loop_
 _symmetry_equiv_pos_site_id
 _symmetry_equiv_pos_as_xyz
  1  'x, y, z'
loop_
 _atom_site_type_symbol
 _atom_site_label
 _atom_site_symmetry_multiplicity
 _atom_site_fract_x
 _atom_site_fract_y
 _atom_site_fract_z
 _atom_site_occupancy
  U  U0  1  0.33333333  0.66666667  0.25000000  1
  U  U1  1  0.66666667  0.33333333  0.75000000  1
  Sn  Sn2  1  0.00000000  0.00000000  0.00000000  1
  Sn  Sn3  1  0.00000000  0.00000000  0.50000000  1
  Fe  Fe4  1  0.66666667  0.33333333  0.03106938  1
  Fe  Fe5  1  0.33333333  0.66666667  0.53106938  1
  Fe  Fe6  1  0.66666667  0.33333333  0.46893062  1
  Fe  Fe7  1  0.33333333  0.66666667  0.96893062  1
