# generated using pymatgen
data_RbReHgCl6
_symmetry_space_group_name_H-M   'P 1'
_cell_length_a   8.04914439
_cell_length_b   8.04914439
_cell_length_c   10.83299883
_cell_angle_alpha   90.00000000
_cell_angle_beta   90.00000000
_cell_angle_gamma   120.00000003
_symmetry_Int_Tables_number   1
_chemical_formula_structural   RbReHgCl6
_chemical_formula_sum   'Rb2 Re2 Hg2 Cl12'
_cell_volume   607.82528734
_cell_formula_units_Z   2
loop_
 _symmetry_equiv_pos_site_id
 _symmetry_equiv_pos_as_xyz
  1  'x, y, z'
loop_
 _atom_site_type_symbol
 _atom_site_label
 _atom_site_symmetry_multiplicity
 _atom_site_fract_x
 _atom_site_fract_y
 _atom_site_fract_z
 _atom_site_occupancy
  Rb  Rb0  1  0.33333333  0.66666667  0.25000000  1
  Rb  Rb1  1  0.66666667  0.33333333  0.75000000  1
  Re  Re2  1  0.66666667  0.33333333  0.25000000  1
  Re  Re3  1  0.33333333  0.66666667  0.75000000  1
  Hg  Hg4  1  0.00000000  0.00000000  0.00000000  1
  Hg  Hg5  1  0.00000000  0.00000000  0.50000000  1
  Cl  Cl6  1  0.66380824  0.56950390  0.12473343  1
  Cl  Cl7  1  0.90569567  0.33619076  0.12473343  1
  Cl  Cl8  1  0.33619176  0.90569667  0.62473343  1
  Cl  Cl9  1  0.09430433  0.66380924  0.87526657  1
  Cl  Cl10  1  0.43049510  0.33619076  0.37526657  1
  Cl  Cl11  1  0.90569567  0.56950390  0.37526657  1
  Cl  Cl12  1  0.56950490  0.90569667  0.87526657  1
  Cl  Cl13  1  0.66380824  0.09430333  0.37526657  1
  Cl  Cl14  1  0.09430433  0.43049610  0.62473343  1
  Cl  Cl15  1  0.43049510  0.09430333  0.12473343  1
  Cl  Cl16  1  0.56950490  0.66380924  0.62473343  1
  Cl  Cl17  1  0.33619176  0.43049610  0.87526657  1
