# generated using pymatgen
data_Zr(TlSe)4
_symmetry_space_group_name_H-M   'P 1'
_cell_length_a   9.56122579
_cell_length_b   9.56784086
_cell_length_c   16.44596666
_cell_angle_alpha   104.41386147
_cell_angle_beta   104.75596389
_cell_angle_gamma   89.92768001
_symmetry_Int_Tables_number   1
_chemical_formula_structural   Zr(TlSe)4
_chemical_formula_sum   'Zr5 Tl20 Se20'
_cell_volume   1405.96357324
_cell_formula_units_Z   5
loop_
 _symmetry_equiv_pos_site_id
 _symmetry_equiv_pos_as_xyz
  1  'x, y, z'
loop_
 _atom_site_type_symbol
 _atom_site_label
 _atom_site_symmetry_multiplicity
 _atom_site_fract_x
 _atom_site_fract_y
 _atom_site_fract_z
 _atom_site_occupancy
  Se  Se0  1  0.06645696  0.04569551  0.40269831  1
  Se  Se1  1  0.93354304  0.95430449  0.59730169  1
  Se  Se2  1  0.07442528  0.39693470  0.57912978  1
  Se  Se3  1  0.92557472  0.60306530  0.42087022  1
  Se  Se4  1  0.07730064  0.23154667  0.01964394  1
  Se  Se5  1  0.92269936  0.76845333  0.98035606  1
  Se  Se6  1  0.08970453  0.58409500  0.17909549  1
  Se  Se7  1  0.91029547  0.41590500  0.82090451  1
  Se  Se8  1  0.24928766  0.03775863  0.19064596  1
  Se  Se9  1  0.75071234  0.96224137  0.80935404  1
  Se  Se10  1  0.25442538  0.38686644  0.37816429  1
  Se  Se11  1  0.74557462  0.61313356  0.62183571  1
  Se  Se12  1  0.44957900  0.38926285  0.20066157  1
  Se  Se13  1  0.55042100  0.61073715  0.79933843  1
  Se  Se14  1  0.71343127  0.23885136  0.39676626  1
  Se  Se15  1  0.28656873  0.76114864  0.60323374  1
  Se  Se16  1  0.72714044  0.42633983  0.00538121  1
  Se  Se17  1  0.27285956  0.57366017  0.99461879  1
  Se  Se18  1  0.90823637  0.26049826  0.22308964  1
  Se  Se19  1  0.09176363  0.73950174  0.77691036  1
  Tl  Tl20  1  0.03827671  0.07697986  0.80033664  1
  Tl  Tl21  1  0.96172329  0.92302014  0.19966336  1
  Tl  Tl22  1  0.20922038  0.71817264  0.39967297  1
  Tl  Tl23  1  0.79077962  0.28182736  0.60032703  1
  Tl  Tl24  1  0.21725693  0.08712685  0.59652115  1
  Tl  Tl25  1  0.78274307  0.91287315  0.40347885  1
  Tl  Tl26  1  0.22050278  0.45300518  0.79472316  1
  Tl  Tl27  1  0.77949722  0.54699482  0.20527684  1
  Tl  Tl28  1  0.37818731  0.09789169  0.38577278  1
  Tl  Tl29  1  0.62181269  0.90210831  0.61422722  1
  Tl  Tl30  1  0.38690414  0.70391870  0.18855407  1
  Tl  Tl31  1  0.61309586  0.29608130  0.81144593  1
  Tl  Tl32  1  0.41140191  0.46920672  0.59559173  1
  Tl  Tl33  1  0.58859809  0.53079328  0.40440827  1
  Tl  Tl34  1  0.58535572  0.10725041  0.20024749  1
  Tl  Tl35  1  0.41464428  0.89274959  0.79975251  1
  Tl  Tl36  1  0.60603352  0.71359378  0.99564477  1
  Tl  Tl37  1  0.39396648  0.28640622  0.00435523  1
  Tl  Tl38  1  0.78112768  0.10418629  0.01141017  1
  Tl  Tl39  1  0.21887232  0.89581371  0.98858983  1
  Zr  Zr40  1  0.01482870  0.68624928  0.59868140  1
  Zr  Zr41  1  0.98517130  0.31375072  0.40131860  1
  Zr  Zr42  1  0.17971873  0.31048010  0.19920222  1
  Zr  Zr43  1  0.82028127  0.68951990  0.80079778  1
  Zr  Zr44  1  -0.00000000  0.50000000  0.00000000  1
