# generated using pymatgen
data_Pu3(Si3Pd10)2
_symmetry_space_group_name_H-M   'P 1'
_cell_length_a   8.74559870
_cell_length_b   8.74560104
_cell_length_c   8.74560069
_cell_angle_alpha   59.99999758
_cell_angle_beta   59.99998871
_cell_angle_gamma   59.99999710
_symmetry_Int_Tables_number   1
_chemical_formula_structural   Pu3(Si3Pd10)2
_chemical_formula_sum   'Pu3 Si6 Pd20'
_cell_volume   472.99200382
_cell_formula_units_Z   1
loop_
 _symmetry_equiv_pos_site_id
 _symmetry_equiv_pos_as_xyz
  1  'x, y, z'
loop_
 _atom_site_type_symbol
 _atom_site_label
 _atom_site_symmetry_multiplicity
 _atom_site_fract_x
 _atom_site_fract_y
 _atom_site_fract_z
 _atom_site_occupancy
  Pu  Pu0  1  0.75000000  0.75000000  0.75000000  1
  Pu  Pu1  1  0.25000000  0.25000000  0.25000000  1
  Pu  Pu2  1  0.00000000  0.00000000  0.00000000  1
  Si  Si3  1  0.26762752  0.73237248  0.73237248  1
  Si  Si4  1  0.73237248  0.26762752  0.26762752  1
  Si  Si5  1  0.26762752  0.26762752  0.73237248  1
  Si  Si6  1  0.73237248  0.26762752  0.73237248  1
  Si  Si7  1  0.26762752  0.73237248  0.26762752  1
  Si  Si8  1  0.73237248  0.73237248  0.26762752  1
  Pd  Pd9  1  0.38445080  0.38445080  0.84664759  1
  Pd  Pd10  1  0.15335241  0.61554920  0.61554920  1
  Pd  Pd11  1  0.65392435  1.00000000  1.00000000  1
  Pd  Pd12  1  0.65392435  0.34607565  1.00000000  1
  Pd  Pd13  1  1.00000000  1.00000000  0.65392435  1
  Pd  Pd14  1  0.38445080  0.84664759  0.38445080  1
  Pd  Pd15  1  1.00000000  0.34607565  0.65392435  1
  Pd  Pd16  1  0.65392435  1.00000000  0.34607565  1
  Pd  Pd17  1  0.00000000  0.65392435  1.00000000  1
  Pd  Pd18  1  0.00000000  0.00000000  0.34607565  1
  Pd  Pd19  1  0.34607565  0.00000000  0.65392435  1
  Pd  Pd20  1  1.00000000  0.34607565  -0.00000000  1
  Pd  Pd21  1  0.34607565  0.65392435  0.00000000  1
  Pd  Pd22  1  0.34607565  0.00000000  -0.00000000  1
  Pd  Pd23  1  0.38445080  0.38445080  0.38445080  1
  Pd  Pd24  1  0.61554920  0.61554920  0.15335241  1
  Pd  Pd25  1  0.61554920  0.61554920  0.61554920  1
  Pd  Pd26  1  0.61554920  0.15335241  0.61554920  1
  Pd  Pd27  1  0.84664759  0.38445080  0.38445080  1
  Pd  Pd28  1  0.00000000  0.65392435  0.34607565  1
