# generated using pymatgen
data_TmGa2Co
_symmetry_space_group_name_H-M   'P 1'
_cell_length_a   4.06019442
_cell_length_b   4.06019443
_cell_length_c   5.46100102
_cell_angle_alpha   68.17675331
_cell_angle_beta   68.17675329
_cell_angle_gamma   60.00000006
_symmetry_Int_Tables_number   1
_chemical_formula_structural   TmGa2Co
_chemical_formula_sum   'Tm1 Ga2 Co1'
_cell_volume   70.41623309
_cell_formula_units_Z   1
loop_
 _symmetry_equiv_pos_site_id
 _symmetry_equiv_pos_as_xyz
  1  'x, y, z'
loop_
 _atom_site_type_symbol
 _atom_site_label
 _atom_site_symmetry_multiplicity
 _atom_site_fract_x
 _atom_site_fract_y
 _atom_site_fract_z
 _atom_site_occupancy
  Tm  Tm0  1  0.00000000  0.00000000  0.00000000  1
  Co  Co1  1  0.50000000  0.50000000  0.50000000  1
  Ga  Ga2  1  0.78663860  0.78663860  0.64008420  1
  Ga  Ga3  1  0.21336140  0.21336140  0.35991580  1
