# generated using pymatgen
data_GeBH4
_symmetry_space_group_name_H-M   'P 1'
_cell_length_a   2.27827811
_cell_length_b   7.39404671
_cell_length_c   8.92779402
_cell_angle_alpha   90.00000000
_cell_angle_beta   97.33062028
_cell_angle_gamma   90.00000000
_symmetry_Int_Tables_number   1
_chemical_formula_structural   GeBH4
_chemical_formula_sum   'Ge2 B2 H8'
_cell_volume   149.16562439
_cell_formula_units_Z   2
loop_
 _symmetry_equiv_pos_site_id
 _symmetry_equiv_pos_as_xyz
  1  'x, y, z'
loop_
 _atom_site_type_symbol
 _atom_site_label
 _atom_site_symmetry_multiplicity
 _atom_site_fract_x
 _atom_site_fract_y
 _atom_site_fract_z
 _atom_site_occupancy
  Ge  Ge0  1  0.82292348  0.87041096  0.64584597  1
  Ge  Ge1  1  0.17707652  0.37041096  0.35415403  1
  B  B2  1  0.56395640  0.83987493  0.12791380  1
  B  B3  1  0.43604360  0.33987493  0.87208620  1
  H  H4  1  0.96462964  0.24894535  0.92925927  1
  H  H5  1  0.03537036  0.74894535  0.07074073  1
  H  H6  1  0.53437718  0.98436475  0.06875437  1
  H  H7  1  0.46562282  0.48436475  0.93124563  1
  H  H8  1  0.78860197  0.67531028  0.57720394  1
  H  H9  1  0.21139803  0.17531028  0.42279606  1
  H  H10  1  0.63038538  0.81449373  0.26076975  1
  H  H11  1  0.36961462  0.31449373  0.73923025  1
