# generated using pymatgen
data_Ta2SiNi
_symmetry_space_group_name_H-M   'P 1'
_cell_length_a   6.86226548
_cell_length_b   6.86226548
_cell_length_c   5.57091712
_cell_angle_alpha   51.98259118
_cell_angle_beta   51.98259118
_cell_angle_gamma   90.00000000
_symmetry_Int_Tables_number   1
_chemical_formula_structural   Ta2SiNi
_chemical_formula_sum   'Ta4 Si2 Ni2'
_cell_volume   128.87520879
_cell_formula_units_Z   2
loop_
 _symmetry_equiv_pos_site_id
 _symmetry_equiv_pos_as_xyz
  1  'x, y, z'
loop_
 _atom_site_type_symbol
 _atom_site_label
 _atom_site_symmetry_multiplicity
 _atom_site_fract_x
 _atom_site_fract_y
 _atom_site_fract_z
 _atom_site_occupancy
  Ni  Ni0  1  0.00000000  0.00000000  0.00000000  1
  Ni  Ni1  1  0.75000000  0.25000000  0.50000000  1
  Si  Si2  1  0.50000000  0.50000000  0.00000000  1
  Si  Si3  1  0.25000000  0.75000000  0.50000000  1
  Ta  Ta4  1  0.63601454  0.12500000  0.25000000  1
  Ta  Ta5  1  0.11398546  0.62500000  0.25000000  1
  Ta  Ta6  1  0.37500000  0.36398546  0.75000000  1
  Ta  Ta7  1  0.87500000  0.88601454  0.75000000  1
