# generated using pymatgen
data_Nd4Bi2N
_symmetry_space_group_name_H-M   'P 1'
_cell_length_a   4.90232384
_cell_length_b   4.90232384
_cell_length_c   9.11132128
_cell_angle_alpha   105.60618322
_cell_angle_beta   105.60618322
_cell_angle_gamma   90.00000000
_symmetry_Int_Tables_number   1
_chemical_formula_structural   Nd4Bi2N
_chemical_formula_sum   'Nd4 Bi2 N1'
_cell_volume   202.50349030
_cell_formula_units_Z   1
loop_
 _symmetry_equiv_pos_site_id
 _symmetry_equiv_pos_as_xyz
  1  'x, y, z'
loop_
 _atom_site_type_symbol
 _atom_site_label
 _atom_site_symmetry_multiplicity
 _atom_site_fract_x
 _atom_site_fract_y
 _atom_site_fract_z
 _atom_site_occupancy
  Nd  Nd0  1  0.84026224  0.84026224  0.68052447  1
  Nd  Nd1  1  0.15973776  0.15973776  0.31947553  1
  Nd  Nd2  1  0.00000000  0.50000000  0.00000000  1
  Nd  Nd3  1  0.50000000  0.00000000  0.00000000  1
  Bi  Bi4  1  0.64420039  0.64420039  0.28840079  1
  Bi  Bi5  1  0.35579961  0.35579961  0.71159921  1
  N  N6  1  0.00000000  0.00000000  0.00000000  1
