# generated using pymatgen
data_Cs4Na2Li
_symmetry_space_group_name_H-M   'P 1'
_cell_length_a   7.78336922
_cell_length_b   7.78336922
_cell_length_c   11.68428513
_cell_angle_alpha   70.54478294
_cell_angle_beta   70.54478294
_cell_angle_gamma   90.00000000
_symmetry_Int_Tables_number   1
_chemical_formula_structural   Cs4Na2Li
_chemical_formula_sum   'Cs4 Na2 Li1'
_cell_volume   624.40036780
_cell_formula_units_Z   1
loop_
 _symmetry_equiv_pos_site_id
 _symmetry_equiv_pos_as_xyz
  1  'x, y, z'
loop_
 _atom_site_type_symbol
 _atom_site_label
 _atom_site_symmetry_multiplicity
 _atom_site_fract_x
 _atom_site_fract_y
 _atom_site_fract_z
 _atom_site_occupancy
  Cs  Cs0  1  0.80426545  0.80426545  0.39146810  1
  Cs  Cs1  1  0.19573455  0.19573455  0.60853190  1
  Cs  Cs2  1  0.00000000  0.50000000  0.00000000  1
  Cs  Cs3  1  0.50000000  0.00000000  0.00000000  1
  Na  Na4  1  0.59701831  0.59701831  0.80596339  1
  Na  Na5  1  0.40298169  0.40298169  0.19403661  1
  Li  Li6  1  0.00000000  0.00000000  0.00000000  1
