# generated using pymatgen
data_NaTmI3
_symmetry_space_group_name_H-M   'P 1'
_cell_length_a   6.92462656
_cell_length_b   7.98238452
_cell_length_c   7.98238451
_cell_angle_alpha   120.00000003
_cell_angle_beta   90.00000000
_cell_angle_gamma   90.00000000
_symmetry_Int_Tables_number   1
_chemical_formula_structural   NaTmI3
_chemical_formula_sum   'Na2 Tm2 I6'
_cell_volume   382.11340823
_cell_formula_units_Z   2
loop_
 _symmetry_equiv_pos_site_id
 _symmetry_equiv_pos_as_xyz
  1  'x, y, z'
loop_
 _atom_site_type_symbol
 _atom_site_label
 _atom_site_symmetry_multiplicity
 _atom_site_fract_x
 _atom_site_fract_y
 _atom_site_fract_z
 _atom_site_occupancy
  I  I0  1  0.25000000  0.31582225  0.99465088  1
  I  I1  1  0.25000000  0.00534912  0.32117137  1
  I  I2  1  0.25000000  0.67882863  0.68417775  1
  I  I3  1  0.75000000  0.67882863  0.99465088  1
  I  I4  1  0.75000000  0.31582225  0.32117137  1
  I  I5  1  0.75000000  0.00534912  0.68417775  1
  Na  Na6  1  0.50000000  0.66666667  0.33333333  1
  Na  Na7  1  0.00000000  0.66666667  0.33333333  1
  Tm  Tm8  1  0.00000000  0.00000000  0.00000000  1
  Tm  Tm9  1  0.50000000  0.00000000  0.00000000  1
