# generated using pymatgen
data_Al2Pd5
_symmetry_space_group_name_H-M   'P 1'
_cell_length_a   5.54889101
_cell_length_b   6.22208657
_cell_length_c   7.42383138
_cell_angle_alpha   114.77536998
_cell_angle_beta   111.94535518
_cell_angle_gamma   90.00000018
_symmetry_Int_Tables_number   1
_chemical_formula_structural   Al2Pd5
_chemical_formula_sum   'Al4 Pd10'
_cell_volume   212.09309031
_cell_formula_units_Z   2
loop_
 _symmetry_equiv_pos_site_id
 _symmetry_equiv_pos_as_xyz
  1  'x, y, z'
loop_
 _atom_site_type_symbol
 _atom_site_label
 _atom_site_symmetry_multiplicity
 _atom_site_fract_x
 _atom_site_fract_y
 _atom_site_fract_z
 _atom_site_occupancy
  Al  Al0  1  0.37645077  0.64465781  0.75290154  1
  Al  Al1  1  0.62354923  0.35534219  0.24709846  1
  Al  Al2  1  0.87645077  0.10824273  0.75290154  1
  Al  Al3  1  0.12354923  0.89175727  0.24709846  1
  Pd  Pd4  1  0.08682385  0.24707029  0.17364769  1
  Pd  Pd5  1  0.91317615  0.75292971  0.82635231  1
  Pd  Pd6  1  0.58682385  0.92657740  0.17364769  1
  Pd  Pd7  1  0.41317615  0.07342260  0.82635231  1
  Pd  Pd8  1  0.48053899  0.73053899  0.46107799  1
  Pd  Pd9  1  0.01946101  0.26946001  0.53892201  1
  Pd  Pd10  1  0.51946101  0.26946101  0.53892201  1
  Pd  Pd11  1  0.98053899  0.73053999  0.46107799  1
  Pd  Pd12  1  0.75000000  0.50000000  0.00000000  1
  Pd  Pd13  1  0.25000000  0.50000000  0.00000000  1
