# generated using pymatgen
data_CsAl2Sn
_symmetry_space_group_name_H-M   'P 1'
_cell_length_a   5.61042794
_cell_length_b   5.61042794
_cell_length_c   10.42140951
_cell_angle_alpha   74.38464220
_cell_angle_beta   74.38464220
_cell_angle_gamma   90.00000000
_symmetry_Int_Tables_number   1
_chemical_formula_structural   CsAl2Sn
_chemical_formula_sum   'Cs2 Al4 Sn2'
_cell_volume   303.33564408
_cell_formula_units_Z   2
loop_
 _symmetry_equiv_pos_site_id
 _symmetry_equiv_pos_as_xyz
  1  'x, y, z'
loop_
 _atom_site_type_symbol
 _atom_site_label
 _atom_site_symmetry_multiplicity
 _atom_site_fract_x
 _atom_site_fract_y
 _atom_site_fract_z
 _atom_site_occupancy
  Cs  Cs0  1  0.00000000  0.00000000  0.00000000  1
  Cs  Cs1  1  0.75000000  0.25000000  0.50000000  1
  Sn  Sn2  1  0.50000000  0.50000000  0.00000000  1
  Sn  Sn3  1  0.25000000  0.75000000  0.50000000  1
  Al  Al4  1  0.37451018  0.12500000  0.25000000  1
  Al  Al5  1  0.37548982  0.62500000  0.25000000  1
  Al  Al6  1  0.37500000  0.62548982  0.75000000  1
  Al  Al7  1  0.87500000  0.62451018  0.75000000  1
