# generated using pymatgen
data_Ag5(H4Pd)3
_symmetry_space_group_name_H-M   'P 1'
_cell_length_a   10.09027767
_cell_length_b   10.09027767
_cell_length_c   10.09027766
_cell_angle_alpha   109.47122065
_cell_angle_beta   109.47122065
_cell_angle_gamma   109.47122063
_symmetry_Int_Tables_number   1
_chemical_formula_structural   Ag5(H4Pd)3
_chemical_formula_sum   'Ag20 Pd12 H48'
_cell_volume   790.83787694
_cell_formula_units_Z   4
loop_
 _symmetry_equiv_pos_site_id
 _symmetry_equiv_pos_as_xyz
  1  'x, y, z'
loop_
 _atom_site_type_symbol
 _atom_site_label
 _atom_site_symmetry_multiplicity
 _atom_site_fract_x
 _atom_site_fract_y
 _atom_site_fract_z
 _atom_site_occupancy
  Pd  Pd0  1  0.75000000  0.37500000  0.12500000  1
  Pd  Pd1  1  0.87500000  0.75000000  0.12500000  1
  Pd  Pd2  1  0.37500000  0.75000000  0.62500000  1
  Pd  Pd3  1  0.25000000  0.12500000  0.37500000  1
  Pd  Pd4  1  0.87500000  0.12500000  0.25000000  1
  Pd  Pd5  1  0.37500000  0.62500000  0.25000000  1
  Pd  Pd6  1  0.62500000  0.37500000  0.75000000  1
  Pd  Pd7  1  0.12500000  0.87500000  0.75000000  1
  Pd  Pd8  1  0.75000000  0.87500000  0.62500000  1
  Pd  Pd9  1  0.62500000  0.25000000  0.37500000  1
  Pd  Pd10  1  0.12500000  0.25000000  0.87500000  1
  Pd  Pd11  1  0.25000000  0.62500000  0.87500000  1
  Ag  Ag12  1  0.12500000  0.37500000  0.25000000  1
  Ag  Ag13  1  0.00000000  0.50000000  0.00000000  1
  Ag  Ag14  1  0.00000000  0.00000000  0.00000000  1
  Ag  Ag15  1  0.37500000  0.25000000  0.12500000  1
  Ag  Ag16  1  0.50000000  0.00000000  0.50000000  1
  Ag  Ag17  1  0.50000000  0.50000000  0.00000000  1
  Ag  Ag18  1  0.12500000  0.75000000  0.37500000  1
  Ag  Ag19  1  0.75000000  0.12500000  0.87500000  1
  Ag  Ag20  1  0.75000000  0.62500000  0.37500000  1
  Ag  Ag21  1  0.37500000  0.12500000  0.75000000  1
  Ag  Ag22  1  0.62500000  0.87500000  0.25000000  1
  Ag  Ag23  1  0.50000000  0.50000000  0.50000000  1
  Ag  Ag24  1  0.50000000  0.00000000  0.00000000  1
  Ag  Ag25  1  0.00000000  0.00000000  0.50000000  1
  Ag  Ag26  1  0.25000000  0.37500000  0.62500000  1
  Ag  Ag27  1  0.25000000  0.87500000  0.12500000  1
  Ag  Ag28  1  0.00000000  0.50000000  0.50000000  1
  Ag  Ag29  1  0.87500000  0.25000000  0.62500000  1
  Ag  Ag30  1  0.62500000  0.75000000  0.87500000  1
  Ag  Ag31  1  0.87500000  0.62500000  0.75000000  1
  H  H32  1  0.69531170  0.16671737  0.04121669  1
  H  H33  1  0.34590499  0.54121669  0.37449932  1
  H  H34  1  0.95878331  0.33328263  0.30468830  1
  H  H35  1  0.54121669  0.19531170  0.16671737  1
  H  H36  1  0.52859433  0.69531170  0.65409501  1
  H  H37  1  0.95878331  0.62550068  0.15409501  1
  H  H38  1  0.34590499  0.80468830  0.47140567  1
  H  H39  1  0.12550068  0.97140567  0.16671737  1
  H  H40  1  0.62550068  0.95878331  0.65409501  1
  H  H41  1  0.69531170  0.52859433  0.15409501  1
  H  H42  1  0.80468830  0.45878331  0.33328263  1
  H  H43  1  0.84590499  0.87449932  0.04121669  1
  H  H44  1  0.16671737  0.69531170  0.54121669  1
  H  H45  1  0.33328263  0.37449932  0.02859433  1
  H  H46  1  0.02859433  0.87449932  0.33328263  1
  H  H47  1  0.47140567  0.16671737  0.62550068  1
  H  H48  1  0.02859433  0.15409501  0.19531170  1
  H  H49  1  0.45878331  0.65409501  0.12550068  1
  H  H50  1  0.84590499  0.97140567  0.30468830  1
  H  H51  1  0.16671737  0.47140567  0.12550068  1
  H  H52  1  0.33328263  0.95878331  0.80468830  1
  H  H53  1  0.62550068  0.66671737  0.47140567  1
  H  H54  1  0.87449932  0.84590499  0.54121669  1
  H  H55  1  0.80468830  0.34590499  0.97140567  1
  H  H56  1  0.37449932  0.33328263  0.52859433  1
  H  H57  1  0.12550068  0.15409501  0.45878331  1
  H  H58  1  0.19531170  0.65409501  0.02859433  1
  H  H59  1  0.15409501  0.02859433  0.69531170  1
  H  H60  1  0.66671737  0.04121669  0.19531170  1
  H  H61  1  0.83328263  0.52859433  0.87449932  1
  H  H62  1  0.54121669  0.34590499  0.87449932  1
  H  H63  1  0.52859433  0.83328263  0.37449932  1
  H  H64  1  0.97140567  0.84590499  0.80468830  1
  H  H65  1  0.97140567  0.12550068  0.66671737  1
  H  H66  1  0.83328263  0.30468830  0.45878331  1
  H  H67  1  0.15409501  0.12550068  0.95878331  1
  H  H68  1  0.66671737  0.62550068  0.97140567  1
  H  H69  1  0.37449932  0.04121669  0.34590499  1
  H  H70  1  0.30468830  0.47140567  0.84590499  1
  H  H71  1  0.19531170  0.54121669  0.66671737  1
  H  H72  1  0.87449932  0.02859433  0.83328263  1
  H  H73  1  0.65409501  0.19531170  0.52859433  1
  H  H74  1  0.45878331  0.80468830  0.83328263  1
  H  H75  1  0.04121669  0.37449932  0.84590499  1
  H  H76  1  0.47140567  0.30468830  0.34590499  1
  H  H77  1  0.04121669  0.66671737  0.69531170  1
  H  H78  1  0.65409501  0.45878331  0.62550068  1
  H  H79  1  0.30468830  0.83328263  0.95878331  1
