# generated using pymatgen
data_Sc2NiRh
_symmetry_space_group_name_H-M   'P 1'
_cell_length_a   4.53818503
_cell_length_b   4.53841841
_cell_length_c   4.53818500
_cell_angle_alpha   59.99755382
_cell_angle_beta   59.99897829
_cell_angle_gamma   59.99755413
_symmetry_Int_Tables_number   1
_chemical_formula_structural   Sc2NiRh
_chemical_formula_sum   'Sc2 Ni1 Rh1'
_cell_volume   66.08981231
_cell_formula_units_Z   1
loop_
 _symmetry_equiv_pos_site_id
 _symmetry_equiv_pos_as_xyz
  1  'x, y, z'
loop_
 _atom_site_type_symbol
 _atom_site_label
 _atom_site_symmetry_multiplicity
 _atom_site_fract_x
 _atom_site_fract_y
 _atom_site_fract_z
 _atom_site_occupancy
  Sc  Sc0  1  0.49999386  0.50000860  0.49999412  1
  Sc  Sc1  1  0.00000302  0.00000127  0.00000318  1
  Ni  Ni2  1  0.74999918  0.75000140  0.75000235  1
  Rh  Rh3  1  0.24999794  0.25000573  0.24999735  1
