# generated using pymatgen
data_MnCrTcPdRh
_symmetry_space_group_name_H-M   'P 1'
_cell_length_a   2.65568843
_cell_length_b   4.05114936
_cell_length_c   12.58517811
_cell_angle_alpha   90.00000000
_cell_angle_beta   90.00000000
_cell_angle_gamma   90.00000000
_symmetry_Int_Tables_number   1
_chemical_formula_structural   MnCrTcPdRh
_chemical_formula_sum   'Mn2 Cr2 Tc2 Pd2 Rh2'
_cell_volume   135.39877745
_cell_formula_units_Z   2
loop_
 _symmetry_equiv_pos_site_id
 _symmetry_equiv_pos_as_xyz
  1  'x, y, z'
loop_
 _atom_site_type_symbol
 _atom_site_label
 _atom_site_symmetry_multiplicity
 _atom_site_fract_x
 _atom_site_fract_y
 _atom_site_fract_z
 _atom_site_occupancy
  Cr  Cr0  1  0.00000000  0.00000000  0.92466848  1
  Cr  Cr1  1  0.00000000  0.50000000  0.42466848  1
  Mn  Mn2  1  0.50000000  0.00000000  0.50725517  1
  Mn  Mn3  1  0.50000000  0.50000000  0.00725517  1
  Rh  Rh4  1  0.50000000  0.00000000  0.10356398  1
  Rh  Rh5  1  0.50000000  0.50000000  0.60356398  1
  Tc  Tc6  1  0.50000000  0.00000000  0.32843583  1
  Tc  Tc7  1  0.50000000  0.50000000  0.82843583  1
  Pd  Pd8  1  0.00000000  0.00000000  0.71057654  1
  Pd  Pd9  1  0.00000000  0.50000000  0.21057654  1
