# generated using pymatgen
data_TlReRu2
_symmetry_space_group_name_H-M   'P 1'
_cell_length_a   2.83353356
_cell_length_b   2.83353356
_cell_length_c   9.46098239
_cell_angle_alpha   90.00000000
_cell_angle_beta   90.00000000
_cell_angle_gamma   118.34825630
_symmetry_Int_Tables_number   1
_chemical_formula_structural   TlReRu2
_chemical_formula_sum   'Tl1 Re1 Ru2'
_cell_volume   66.85193713
_cell_formula_units_Z   1
loop_
 _symmetry_equiv_pos_site_id
 _symmetry_equiv_pos_as_xyz
  1  'x, y, z'
loop_
 _atom_site_type_symbol
 _atom_site_label
 _atom_site_symmetry_multiplicity
 _atom_site_fract_x
 _atom_site_fract_y
 _atom_site_fract_z
 _atom_site_occupancy
  Re  Re0  1  0.50000000  0.50000000  0.77320604  1
  Ru  Ru1  1  0.00000000  0.00000000  0.99887830  1
  Ru  Ru2  1  0.50000000  0.50000000  0.23348628  1
  Tl  Tl3  1  0.00000000  0.00000000  0.49442939  1
