# generated using pymatgen
data_TiCrTe
_symmetry_space_group_name_H-M   'P 1'
_cell_length_a   3.48026662
_cell_length_b   3.48026662
_cell_length_c   9.96042293
_cell_angle_alpha   90.00000000
_cell_angle_beta   90.00000000
_cell_angle_gamma   90.00000000
_symmetry_Int_Tables_number   1
_chemical_formula_structural   TiCrTe
_chemical_formula_sum   'Ti2 Cr2 Te2'
_cell_volume   120.64318987
_cell_formula_units_Z   2
loop_
 _symmetry_equiv_pos_site_id
 _symmetry_equiv_pos_as_xyz
  1  'x, y, z'
loop_
 _atom_site_type_symbol
 _atom_site_label
 _atom_site_symmetry_multiplicity
 _atom_site_fract_x
 _atom_site_fract_y
 _atom_site_fract_z
 _atom_site_occupancy
  Te  Te0  1  0.00000000  0.50000000  0.66795773  1
  Te  Te1  1  0.50000000  0.00000000  0.33204227  1
  Ti  Ti2  1  0.50000000  0.00000000  0.80366761  1
  Ti  Ti3  1  0.00000000  0.50000000  0.19633239  1
  Cr  Cr4  1  0.00000000  0.50000000  0.96754199  1
  Cr  Cr5  1  0.50000000  0.00000000  0.03245801  1
