# generated using pymatgen
data_Sr2AgTeO6
_symmetry_space_group_name_H-M   'P 1'
_cell_length_a   5.62070756
_cell_length_b   6.02236763
_cell_length_c   6.02077729
_cell_angle_alpha   55.65323394
_cell_angle_beta   65.15553784
_cell_angle_gamma   65.15598241
_symmetry_Int_Tables_number   1
_chemical_formula_structural   Sr2AgTeO6
_chemical_formula_sum   'Sr2 Ag1 Te1 O6'
_cell_volume   148.06489953
_cell_formula_units_Z   1
loop_
 _symmetry_equiv_pos_site_id
 _symmetry_equiv_pos_as_xyz
  1  'x, y, z'
loop_
 _atom_site_type_symbol
 _atom_site_label
 _atom_site_symmetry_multiplicity
 _atom_site_fract_x
 _atom_site_fract_y
 _atom_site_fract_z
 _atom_site_occupancy
  Sr  Sr0  1  0.53922181  0.57280452  0.30821932  1
  Sr  Sr1  1  0.09310159  0.05951773  0.79482424  1
  Ag  Ag2  1  0.81615657  0.81615851  0.55152595  1
  Te  Te3  1  0.31617095  0.31615551  0.05151282  1
  O  O4  1  0.48658930  0.13950966  0.36041540  1
  O  O5  1  0.14598557  0.00709064  0.22841747  1
  O  O6  1  0.02241156  0.50971754  0.24530440  1
  O  O7  1  0.48633958  0.62526426  0.87459712  1
  O  O8  1  0.60990301  0.12258589  0.85777791  1
  O  O9  1  0.14571706  0.49279674  0.74260637  1
