# generated using pymatgen
data_NdMg2Si2Ir
_symmetry_space_group_name_H-M   'P 1'
_cell_length_a   5.04327214
_cell_length_b   5.04327214
_cell_length_c   6.47159723
_cell_angle_alpha   112.93251367
_cell_angle_beta   112.93251367
_cell_angle_gamma   90.00000000
_symmetry_Int_Tables_number   1
_chemical_formula_structural   NdMg2Si2Ir
_chemical_formula_sum   'Nd1 Mg2 Si2 Ir1'
_cell_volume   137.35687141
_cell_formula_units_Z   1
loop_
 _symmetry_equiv_pos_site_id
 _symmetry_equiv_pos_as_xyz
  1  'x, y, z'
loop_
 _atom_site_type_symbol
 _atom_site_label
 _atom_site_symmetry_multiplicity
 _atom_site_fract_x
 _atom_site_fract_y
 _atom_site_fract_z
 _atom_site_occupancy
  Nd  Nd0  1  0.50000000  0.50000000  0.00000000  1
  Mg  Mg1  1  0.25000000  0.75000000  0.50000000  1
  Mg  Mg2  1  0.75000000  0.25000000  0.50000000  1
  Si  Si3  1  0.79073784  0.79073784  0.58147569  1
  Si  Si4  1  0.20926216  0.20926216  0.41852431  1
  Ir  Ir5  1  0.00000000  0.00000000  0.00000000  1
