# generated using pymatgen
data_ErH3Os
_symmetry_space_group_name_H-M   'P 1'
_cell_length_a   3.67034378
_cell_length_b   4.72435508
_cell_length_c   5.96972248
_cell_angle_alpha   90.00000000
_cell_angle_beta   107.90596902
_cell_angle_gamma   90.00000000
_symmetry_Int_Tables_number   1
_chemical_formula_structural   ErH3Os
_chemical_formula_sum   'Er2 H6 Os2'
_cell_volume   98.50100937
_cell_formula_units_Z   2
loop_
 _symmetry_equiv_pos_site_id
 _symmetry_equiv_pos_as_xyz
  1  'x, y, z'
loop_
 _atom_site_type_symbol
 _atom_site_label
 _atom_site_symmetry_multiplicity
 _atom_site_fract_x
 _atom_site_fract_y
 _atom_site_fract_z
 _atom_site_occupancy
  H  H0  1  0.68965386  0.01069447  0.37921857  1
  H  H1  1  0.31034631  0.98930567  0.62078209  1
  H  H2  1  0.31034631  0.51069433  0.62078209  1
  H  H3  1  0.68965386  0.48930553  0.37921857  1
  H  H4  1  0.08183550  0.25000000  0.16366966  1
  H  H5  1  0.91816231  0.75000000  0.83632788  1
  Os  Os6  1  0.57618086  0.25000000  0.15239104  1
  Os  Os7  1  0.42381915  0.75000000  0.84760975  1
  Er  Er8  1  0.86910330  0.25000000  0.73832073  1
  Er  Er9  1  0.13089655  0.75000000  0.26168061  1
