# generated using pymatgen
data_Pm2AsHPd6
_symmetry_space_group_name_H-M   'P 1'
_cell_length_a   5.76916118
_cell_length_b   6.89842759
_cell_length_c   6.87669127
_cell_angle_alpha   49.53779484
_cell_angle_beta   65.18815559
_cell_angle_gamma   89.99216532
_symmetry_Int_Tables_number   1
_chemical_formula_structural   Pm2AsHPd6
_chemical_formula_sum   'Pm2 As1 H1 Pd6'
_cell_volume   173.70472942
_cell_formula_units_Z   1
loop_
 _symmetry_equiv_pos_site_id
 _symmetry_equiv_pos_as_xyz
  1  'x, y, z'
loop_
 _atom_site_type_symbol
 _atom_site_label
 _atom_site_symmetry_multiplicity
 _atom_site_fract_x
 _atom_site_fract_y
 _atom_site_fract_z
 _atom_site_occupancy
  Pm  Pm0  1  0.72430925  0.27192775  0.55125507  1
  Pm  Pm1  1  0.27569352  0.72807423  0.44874013  1
  As  As2  1  0.99999969  0.99999973  0.00000058  1
  H  H3  1  0.49999947  0.49999958  0.00000096  1
  Pd  Pd4  1  0.27072897  0.22884299  0.45841983  1
  Pd  Pd5  1  0.76754382  0.72669461  0.96246488  1
  Pd  Pd6  1  0.26989771  0.72666192  0.96244889  1
  Pd  Pd7  1  0.73010029  0.27333613  0.03755514  1
  Pd  Pd8  1  0.23245391  0.27330387  0.03753892  1
  Pd  Pd9  1  0.72927038  0.77115618  0.54158160  1
