# generated using pymatgen
data_Pu3Cu(AgS2)4
_symmetry_space_group_name_H-M   'P 1'
_cell_length_a   7.85916134
_cell_length_b   7.59583639
_cell_length_c   8.08193158
_cell_angle_alpha   122.84787299
_cell_angle_beta   119.09230382
_cell_angle_gamma   90.00000000
_symmetry_Int_Tables_number   1
_chemical_formula_structural   Pu3Cu(AgS2)4
_chemical_formula_sum   'Pu3 Cu1 Ag4 S8'
_cell_volume   330.54506865
_cell_formula_units_Z   1
loop_
 _symmetry_equiv_pos_site_id
 _symmetry_equiv_pos_as_xyz
  1  'x, y, z'
loop_
 _atom_site_type_symbol
 _atom_site_label
 _atom_site_symmetry_multiplicity
 _atom_site_fract_x
 _atom_site_fract_y
 _atom_site_fract_z
 _atom_site_occupancy
  Pu  Pu0  1  0.50000000  0.50000000  0.00000000  1
  Pu  Pu1  1  0.50000000  0.50000000  0.50000000  1
  Pu  Pu2  1  -0.00000000  0.50000000  0.50000000  1
  Cu  Cu3  1  0.00000000  0.50000000  0.00000000  1
  Ag  Ag4  1  0.50000000  0.00000000  0.00000000  1
  Ag  Ag5  1  0.50000000  -0.00000000  0.50000000  1
  Ag  Ag6  1  0.00000000  0.00000000  0.00000000  1
  Ag  Ag7  1  -0.00000000  -0.00000000  0.50000000  1
  S  S8  1  0.21461249  0.71326543  0.98513284  1
  S  S9  1  0.27580890  0.77422445  0.55161780  1
  S  S10  1  0.25529774  0.25848896  0.51059548  1
  S  S11  1  0.77052035  0.71326543  0.98513284  1
  S  S12  1  0.22947965  0.28673457  0.01486716  1
  S  S13  1  0.74470226  0.74151104  0.48940452  1
  S  S14  1  0.72419110  0.22577555  0.44838220  1
  S  S15  1  0.78538751  0.28673457  0.01486716  1
