# generated using pymatgen
data_Li2Ca2Bi2H
_symmetry_space_group_name_H-M   'P 1'
_cell_length_a   4.56976199
_cell_length_b   4.56976199
_cell_length_c   8.42398769
_cell_angle_alpha   105.73777462
_cell_angle_beta   105.73777469
_cell_angle_gamma   90.00000000
_symmetry_Int_Tables_number   1
_chemical_formula_structural   Li2Ca2Bi2H
_chemical_formula_sum   'Li2 Ca2 Bi2 H1'
_cell_volume   162.45928516
_cell_formula_units_Z   1
loop_
 _symmetry_equiv_pos_site_id
 _symmetry_equiv_pos_as_xyz
  1  'x, y, z'
loop_
 _atom_site_type_symbol
 _atom_site_label
 _atom_site_symmetry_multiplicity
 _atom_site_fract_x
 _atom_site_fract_y
 _atom_site_fract_z
 _atom_site_occupancy
  Li  Li0  1  0.00000000  0.50000000  0.00000000  1
  Li  Li1  1  0.50000000  0.00000000  0.00000000  1
  Ca  Ca2  1  0.15674094  0.15674094  0.31348189  1
  Ca  Ca3  1  0.84325906  0.84325906  0.68651811  1
  Bi  Bi4  1  0.37323267  0.37323367  0.74646634  1
  Bi  Bi5  1  0.62676733  0.62676633  0.25353366  1
  H  H6  1  0.00000000  0.00000000  0.00000000  1
