# generated using pymatgen
data_PmYAlIn
_symmetry_space_group_name_H-M   'P 1'
_cell_length_a   3.70785191
_cell_length_b   3.70785191
_cell_length_c   7.57233403
_cell_angle_alpha   90.00000000
_cell_angle_beta   90.00000000
_cell_angle_gamma   90.00000000
_symmetry_Int_Tables_number   1
_chemical_formula_structural   PmYAlIn
_chemical_formula_sum   'Pm1 Y1 Al1 In1'
_cell_volume   104.10570364
_cell_formula_units_Z   1
loop_
 _symmetry_equiv_pos_site_id
 _symmetry_equiv_pos_as_xyz
  1  'x, y, z'
loop_
 _atom_site_type_symbol
 _atom_site_label
 _atom_site_symmetry_multiplicity
 _atom_site_fract_x
 _atom_site_fract_y
 _atom_site_fract_z
 _atom_site_occupancy
  Pm  Pm0  1  0.50000000  0.50000000  0.11764969  1
  Y  Y1  1  0.50000000  0.50000000  0.59670226  1
  Al  Al2  1  0.00000000  0.00000000  0.36616994  1
  In  In3  1  0.00000000  0.00000000  0.84743811  1
