# generated using pymatgen
data_Sm3ZrCo8
_symmetry_space_group_name_H-M   'P 1'
_cell_length_a   5.07412657
_cell_length_b   5.07412644
_cell_length_c   8.78583744
_cell_angle_alpha   73.21582839
_cell_angle_beta   73.21582665
_cell_angle_gamma   60.00000313
_symmetry_Int_Tables_number   1
_chemical_formula_structural   Sm3ZrCo8
_chemical_formula_sum   'Sm3 Zr1 Co8'
_cell_volume   184.68974677
_cell_formula_units_Z   1
loop_
 _symmetry_equiv_pos_site_id
 _symmetry_equiv_pos_as_xyz
  1  'x, y, z'
loop_
 _atom_site_type_symbol
 _atom_site_label
 _atom_site_symmetry_multiplicity
 _atom_site_fract_x
 _atom_site_fract_y
 _atom_site_fract_z
 _atom_site_occupancy
  Sm  Sm0  1  0.37427482  0.37427482  0.87717555  1
  Sm  Sm1  1  0.99995644  0.99995644  0.00012969  1
  Sm  Sm2  1  0.49970605  0.49970605  0.50088286  1
  Zr  Zr3  1  0.87560006  0.87560006  0.37320081  1
  Co  Co4  1  0.93047333  0.43675329  0.19602110  1
  Co  Co5  1  0.44614351  0.93734834  0.67915982  1
  Co  Co6  1  0.43675329  0.43675329  0.19602110  1
  Co  Co7  1  0.93734834  0.93734834  0.67915982  1
  Co  Co8  1  0.18808311  0.18808311  0.43575167  1
  Co  Co9  1  0.68755844  0.68755844  0.93732467  1
  Co  Co10  1  0.43675329  0.93047333  0.19602110  1
  Co  Co11  1  0.93734834  0.44614351  0.67915982  1
