# generated using pymatgen
data_Tl4S5
_symmetry_space_group_name_H-M   'P 1'
_cell_length_a   10.15394156
_cell_length_b   9.12530697
_cell_length_c   18.97794586
_cell_angle_alpha   90.00000000
_cell_angle_beta   90.00000000
_cell_angle_gamma   90.03357901
_symmetry_Int_Tables_number   1
_chemical_formula_structural   Tl4S5
_chemical_formula_sum   'Tl8 S10'
_cell_volume   1758.45505032
_cell_formula_units_Z   2
loop_
 _symmetry_equiv_pos_site_id
 _symmetry_equiv_pos_as_xyz
  1  'x, y, z'
loop_
 _atom_site_type_symbol
 _atom_site_label
 _atom_site_symmetry_multiplicity
 _atom_site_fract_x
 _atom_site_fract_y
 _atom_site_fract_z
 _atom_site_occupancy
  Tl  Tl0  1  0.24971523  0.80261389  0.44158014  1
  Tl  Tl1  1  0.74971642  0.30258281  0.44153166  1
  Tl  Tl2  1  0.24911247  0.19666824  0.44195638  1
  Tl  Tl3  1  0.74905340  0.69663635  0.44193589  1
  Tl  Tl4  1  0.57069842  0.99957540  0.38631665  1
  Tl  Tl5  1  0.07074121  0.49959841  0.38632054  1
  Tl  Tl6  1  0.88854105  0.99970425  0.57654748  1
  Tl  Tl7  1  0.38865145  0.49970103  0.57657515  1
  S  S8  1  0.25703356  0.00098455  0.59590479  1
  S  S9  1  0.83441048  0.99984250  0.43100885  1
  S  S10  1  0.99918730  0.31542909  0.52122576  1
  S  S11  1  0.99964861  0.68478015  0.52088874  1
  S  S12  1  0.75699821  0.50092632  0.59592552  1
  S  S13  1  0.33441078  0.49987543  0.43104740  1
  S  S14  1  0.49969974  0.18476502  0.52089934  1
  S  S15  1  0.49919970  0.81547082  0.52124880  1
  S  S16  1  0.45162254  0.00044251  0.58455528  1
  S  S17  1  0.95156941  0.50041325  0.58453163  1
