# generated using pymatgen
data_Cs2Sc(CuS2)2
_symmetry_space_group_name_H-M   'P 1'
_cell_length_a   3.86673506
_cell_length_b   8.06363405
_cell_length_c   7.46462804
_cell_angle_alpha   106.15601615
_cell_angle_beta   105.01096337
_cell_angle_gamma   90.00000000
_symmetry_Int_Tables_number   1
_chemical_formula_structural   Cs2Sc(CuS2)2
_chemical_formula_sum   'Cs2 Sc1 Cu2 S4'
_cell_volume   215.27387207
_cell_formula_units_Z   1
loop_
 _symmetry_equiv_pos_site_id
 _symmetry_equiv_pos_as_xyz
  1  'x, y, z'
loop_
 _atom_site_type_symbol
 _atom_site_label
 _atom_site_symmetry_multiplicity
 _atom_site_fract_x
 _atom_site_fract_y
 _atom_site_fract_z
 _atom_site_occupancy
  Cs  Cs0  1  0.13574895  0.55710761  0.27149790  1
  Cs  Cs1  1  0.86425105  0.44289239  0.72850210  1
  Sc  Sc2  1  0.00000000  0.00000000  0.00000000  1
  Cu  Cu3  1  0.67927377  0.98393658  0.35854754  1
  Cu  Cu4  1  0.32072623  0.01606342  0.64145246  1
  S  S5  1  0.19233552  0.14940214  0.38467204  1
  S  S6  1  0.80766448  0.85059786  0.61532796  1
  S  S7  1  0.52127805  0.79374038  0.04255610  1
  S  S8  1  0.47872195  0.20625962  0.95744390  1
