# generated using pymatgen
data_CrBiS2
_symmetry_space_group_name_H-M   'P 1'
_cell_length_a   3.17113614
_cell_length_b   6.22699612
_cell_length_c   9.29577737
_cell_angle_alpha   90.82664745
_cell_angle_beta   109.99898200
_cell_angle_gamma   104.70505750
_symmetry_Int_Tables_number   1
_chemical_formula_structural   CrBiS2
_chemical_formula_sum   'Cr2 Bi2 S4'
_cell_volume   165.80339563
_cell_formula_units_Z   2
loop_
 _symmetry_equiv_pos_site_id
 _symmetry_equiv_pos_as_xyz
  1  'x, y, z'
loop_
 _atom_site_type_symbol
 _atom_site_label
 _atom_site_symmetry_multiplicity
 _atom_site_fract_x
 _atom_site_fract_y
 _atom_site_fract_z
 _atom_site_occupancy
  Cr  Cr0  1  0.13106504  0.94627908  0.10375844  1
  Cr  Cr1  1  0.30564712  0.79279369  0.85515280  1
  S  S2  1  0.59534487  0.12879657  0.97742771  1
  S  S3  1  0.84138965  0.61031608  0.98149093  1
  S  S4  1  0.65705592  0.86116081  0.67325000  1
  S  S5  1  0.77975133  0.87806997  0.28569789  1
  Bi  Bi6  1  0.87416546  0.33678199  0.65285414  1
  Bi  Bi7  1  0.56252474  0.40248474  0.30605206  1
