# generated using pymatgen
data_SmUS2O
_symmetry_space_group_name_H-M   'P 1'
_cell_length_a   3.88947011
_cell_length_b   3.88947011
_cell_length_c   13.61282412
_cell_angle_alpha   90.00000000
_cell_angle_beta   90.00000000
_cell_angle_gamma   90.00000000
_symmetry_Int_Tables_number   1
_chemical_formula_structural   SmUS2O
_chemical_formula_sum   'Sm2 U2 S4 O2'
_cell_volume   205.93450022
_cell_formula_units_Z   2
loop_
 _symmetry_equiv_pos_site_id
 _symmetry_equiv_pos_as_xyz
  1  'x, y, z'
loop_
 _atom_site_type_symbol
 _atom_site_label
 _atom_site_symmetry_multiplicity
 _atom_site_fract_x
 _atom_site_fract_y
 _atom_site_fract_z
 _atom_site_occupancy
  Sm  Sm0  1  0.50000000  0.00000000  0.10924300  1
  Sm  Sm1  1  0.00000000  0.50000000  0.89075700  1
  U  U2  1  0.50000000  0.00000000  0.59527457  1
  U  U3  1  0.00000000  0.50000000  0.40472543  1
  S  S4  1  0.00000000  0.50000000  0.68605573  1
  S  S5  1  0.00000000  0.50000000  0.10605836  1
  S  S6  1  0.50000000  0.00000000  0.89394164  1
  S  S7  1  0.50000000  0.00000000  0.31394427  1
  O  O8  1  0.00000000  0.00000000  0.50000000  1
  O  O9  1  0.50000000  0.50000000  0.50000000  1
