# generated using pymatgen
data_Ac2GePd6
_symmetry_space_group_name_H-M   'P 1'
_cell_length_a   6.39333732
_cell_length_b   6.39333752
_cell_length_c   6.39226552
_cell_angle_alpha   59.96212629
_cell_angle_beta   59.96213142
_cell_angle_gamma   59.97198634
_symmetry_Int_Tables_number   1
_chemical_formula_structural   Ac2GePd6
_chemical_formula_sum   'Ac2 Ge1 Pd6'
_cell_volume   184.60960716
_cell_formula_units_Z   1
loop_
 _symmetry_equiv_pos_site_id
 _symmetry_equiv_pos_as_xyz
  1  'x, y, z'
loop_
 _atom_site_type_symbol
 _atom_site_label
 _atom_site_symmetry_multiplicity
 _atom_site_fract_x
 _atom_site_fract_y
 _atom_site_fract_z
 _atom_site_occupancy
  Ac  Ac0  1  0.24996671  0.24996671  0.24982682  1
  Ac  Ac1  1  0.75003329  0.75003329  0.75017318  1
  Ge  Ge2  1  0.50000000  0.50000000  0.50000000  1
  Pd  Pd3  1  0.22367699  0.22367699  0.77585846  1
  Pd  Pd4  1  0.22379841  0.77629530  0.22363525  1
  Pd  Pd5  1  0.77620159  0.22370470  0.77636475  1
  Pd  Pd6  1  0.77629530  0.22379841  0.22363525  1
  Pd  Pd7  1  0.22370470  0.77620159  0.77636475  1
  Pd  Pd8  1  0.77632301  0.77632301  0.22414154  1
