# generated using pymatgen
data_OsBr3
_symmetry_space_group_name_H-M   'P 1'
_cell_length_a   7.33221282
_cell_length_b   7.33221282
_cell_length_c   6.72835765
_cell_angle_alpha   56.98395380
_cell_angle_beta   56.98395380
_cell_angle_gamma   90.00000000
_symmetry_Int_Tables_number   1
_chemical_formula_structural   OsBr3
_chemical_formula_sum   'Os2 Br6'
_cell_volume   230.54858191
_cell_formula_units_Z   2
loop_
 _symmetry_equiv_pos_site_id
 _symmetry_equiv_pos_as_xyz
  1  'x, y, z'
loop_
 _atom_site_type_symbol
 _atom_site_label
 _atom_site_symmetry_multiplicity
 _atom_site_fract_x
 _atom_site_fract_y
 _atom_site_fract_z
 _atom_site_occupancy
  Os  Os0  1  0.00000000  0.00000000  0.00000000  1
  Os  Os1  1  0.75000000  0.25000000  0.50000000  1
  Br  Br2  1  0.50000000  0.50000000  0.00000000  1
  Br  Br3  1  0.25000000  0.75000000  0.50000000  1
  Br  Br4  1  0.72429121  0.12500000  0.25000000  1
  Br  Br5  1  0.02570879  0.62500000  0.25000000  1
  Br  Br6  1  0.37500000  0.27570879  0.75000000  1
  Br  Br7  1  0.87500000  0.97429121  0.75000000  1
