# generated using pymatgen
data_AlCdSn
_symmetry_space_group_name_H-M   'P 1'
_cell_length_a   4.90209377
_cell_length_b   5.91297643
_cell_length_c   6.17784079
_cell_angle_alpha   116.20337963
_cell_angle_beta   106.90391238
_cell_angle_gamma   103.17209325
_symmetry_Int_Tables_number   1
_chemical_formula_structural   AlCdSn
_chemical_formula_sum   'Al2 Cd2 Sn2'
_cell_volume   139.86299374
_cell_formula_units_Z   2
loop_
 _symmetry_equiv_pos_site_id
 _symmetry_equiv_pos_as_xyz
  1  'x, y, z'
loop_
 _atom_site_type_symbol
 _atom_site_label
 _atom_site_symmetry_multiplicity
 _atom_site_fract_x
 _atom_site_fract_y
 _atom_site_fract_z
 _atom_site_occupancy
  Al  Al0  1  0.69432316  0.49018356  0.87862582  1
  Al  Al1  1  0.33328809  0.60584297  0.16641786  1
  Sn  Sn2  1  0.71597874  0.98138443  0.81830805  1
  Sn  Sn3  1  0.41544619  0.16693981  0.23644939  1
  Cd  Cd4  1  0.10239708  0.48804352  0.61022536  1
  Cd  Cd5  1  0.03095674  0.90284571  0.45706352  1
