# generated using pymatgen
data_IrIF2
_symmetry_space_group_name_H-M   'P 1'
_cell_length_a   5.28682560
_cell_length_b   9.26516427
_cell_length_c   17.86274099
_cell_angle_alpha   90.00000000
_cell_angle_beta   90.00000000
_cell_angle_gamma   90.00000000
_symmetry_Int_Tables_number   1
_chemical_formula_structural   IrIF2
_chemical_formula_sum   'Ir2 I2 F4'
_cell_volume   874.97613740
_cell_formula_units_Z   2
loop_
 _symmetry_equiv_pos_site_id
 _symmetry_equiv_pos_as_xyz
  1  'x, y, z'
loop_
 _atom_site_type_symbol
 _atom_site_label
 _atom_site_symmetry_multiplicity
 _atom_site_fract_x
 _atom_site_fract_y
 _atom_site_fract_z
 _atom_site_occupancy
  I  I0  1  0.41445739  0.41073218  0.50000000  1
  I  I1  1  0.91445739  0.91073216  0.49999999  1
  Ir  Ir2  1  0.91434674  0.41073218  0.50000000  1
  Ir  Ir3  1  0.41434677  0.91073219  0.50000001  1
  F  F4  1  0.91448292  0.27810901  0.58013162  1
  F  F5  1  0.91448294  0.54335531  0.41986837  1
  F  F6  1  0.41448291  0.77810906  0.58013163  1
  F  F7  1  0.41448295  0.04335533  0.41986837  1
