# generated using pymatgen
data_Na4Cu6F19
_symmetry_space_group_name_H-M   'P 1'
_cell_length_a   8.00561748
_cell_length_b   8.00561823
_cell_length_c   8.00561888
_cell_angle_alpha   109.47121965
_cell_angle_beta   109.47122162
_cell_angle_gamma   109.47122146
_symmetry_Int_Tables_number   1
_chemical_formula_structural   Na4Cu6F19
_chemical_formula_sum   'Na4 Cu6 F19'
_cell_volume   394.96874223
_cell_formula_units_Z   1
loop_
 _symmetry_equiv_pos_site_id
 _symmetry_equiv_pos_as_xyz
  1  'x, y, z'
loop_
 _atom_site_type_symbol
 _atom_site_label
 _atom_site_symmetry_multiplicity
 _atom_site_fract_x
 _atom_site_fract_y
 _atom_site_fract_z
 _atom_site_occupancy
  Na  Na0  1  1.00000000  1.00000000  0.71756164  1
  Na  Na1  1  1.00000000  0.71756164  -0.00000000  1
  Na  Na2  1  0.28243836  0.28243836  0.28243836  1
  Na  Na3  1  0.71756164  0.00000000  -0.00000000  1
  Cu  Cu4  1  0.34223252  0.50000000  0.84223252  1
  Cu  Cu5  1  0.65776748  0.50000000  0.15776748  1
  Cu  Cu6  1  0.15776748  0.65776748  0.50000000  1
  Cu  Cu7  1  0.84223252  0.34223252  0.50000000  1
  Cu  Cu8  1  0.50000000  0.84223252  0.34223252  1
  Cu  Cu9  1  0.50000000  0.15776748  0.65776748  1
  F  F10  1  0.64748486  -0.00000000  0.64748486  1
  F  F11  1  0.35251514  1.00000000  0.35251514  1
  F  F12  1  0.35251514  0.35251514  1.00000000  1
  F  F13  1  0.64748486  0.64748486  0.00000000  1
  F  F14  1  1.00000000  0.64748486  0.64748486  1
  F  F15  1  0.00000000  0.35251514  0.35251514  1
  F  F16  1  0.00000000  0.00000000  0.00000000  1
  F  F17  1  0.34813230  0.30010231  0.62395628  1
  F  F18  1  0.65186770  0.27582398  0.95197001  1
  F  F19  1  0.67614603  0.72417602  0.37604372  1
  F  F20  1  0.95197001  0.65186770  0.27582398  1
  F  F21  1  0.32385397  0.69989769  0.04802999  1
  F  F22  1  0.62395628  0.34813230  0.30010231  1
  F  F23  1  0.04802999  0.32385397  0.69989769  1
  F  F24  1  0.37604372  0.67614603  0.72417602  1
  F  F25  1  0.69989769  0.04802999  0.32385397  1
  F  F26  1  0.27582398  0.95197001  0.65186770  1
  F  F27  1  0.30010231  0.62395628  0.34813230  1
  F  F28  1  0.72417602  0.37604372  0.67614603  1
