# generated using pymatgen
data_Tb5Pr2Sm
_symmetry_space_group_name_H-M   'P 1'
_cell_length_a   10.48190177
_cell_length_b   6.14576429
_cell_length_c   11.58051303
_cell_angle_alpha   103.95633648
_cell_angle_beta   125.54132626
_cell_angle_gamma   100.23081419
_symmetry_Int_Tables_number   1
_chemical_formula_structural   Tb5Pr2Sm
_chemical_formula_sum   'Tb10 Pr4 Sm2'
_cell_volume   539.28953097
_cell_formula_units_Z   2
loop_
 _symmetry_equiv_pos_site_id
 _symmetry_equiv_pos_as_xyz
  1  'x, y, z'
loop_
 _atom_site_type_symbol
 _atom_site_label
 _atom_site_symmetry_multiplicity
 _atom_site_fract_x
 _atom_site_fract_y
 _atom_site_fract_z
 _atom_site_occupancy
  Tb  Tb0  1  0.44530878  0.46269082  0.80604380  1
  Tb  Tb1  1  0.90298532  0.68806233  0.86688320  1
  Tb  Tb2  1  0.09701468  0.31193767  0.13311680  1
  Tb  Tb3  1  0.86112251  0.49694682  0.53318388  1
  Tb  Tb4  1  0.13887749  0.50305318  0.46681612  1
  Tb  Tb5  1  0.71649260  0.02948333  0.57628389  1
  Tb  Tb6  1  0.28350740  0.97051667  0.42371611  1
  Tb  Tb7  1  0.55469122  0.53730918  0.19395620  1
  Tb  Tb8  1  0.28693721  0.92670988  0.83825065  1
  Tb  Tb9  1  0.71306279  0.07329012  0.16174935  1
  Pr  Pr10  1  0.14027708  0.36942803  0.86153532  1
  Pr  Pr11  1  0.62250930  0.02416862  0.81399243  1
  Pr  Pr12  1  0.85972292  0.63057197  0.13846468  1
  Pr  Pr13  1  0.37749070  0.97583138  0.18600757  1
  Sm  Sm14  1  0.00000000  0.00000000  0.50000000  1
  Sm  Sm15  1  0.50000000  0.50000000  0.50000000  1
