# generated using pymatgen
data_LiLa2CeTl4
_symmetry_space_group_name_H-M   'P 1'
_cell_length_a   5.40509209
_cell_length_b   5.40509209
_cell_length_c   9.82690290
_cell_angle_alpha   74.03708991
_cell_angle_beta   74.03708988
_cell_angle_gamma   60.00000005
_symmetry_Int_Tables_number   1
_chemical_formula_structural   LiLa2CeTl4
_chemical_formula_sum   'Li1 La2 Ce1 Tl4'
_cell_volume   235.76043751
_cell_formula_units_Z   1
loop_
 _symmetry_equiv_pos_site_id
 _symmetry_equiv_pos_as_xyz
  1  'x, y, z'
loop_
 _atom_site_type_symbol
 _atom_site_label
 _atom_site_symmetry_multiplicity
 _atom_site_fract_x
 _atom_site_fract_y
 _atom_site_fract_z
 _atom_site_occupancy
  Li  Li0  1  0.50000000  0.50000000  0.50000000  1
  La  La1  1  0.75665720  0.75665720  0.73002841  1
  La  La2  1  0.24334280  0.24334280  0.26997159  1
  Ce  Ce3  1  0.00000000  0.00000000  0.00000000  1
  Tl  Tl4  1  0.37521079  0.37521079  0.87436764  1
  Tl  Tl5  1  0.87304434  0.87304434  0.38086699  1
  Tl  Tl6  1  0.12695566  0.12695566  0.61913301  1
  Tl  Tl7  1  0.62478921  0.62478921  0.12563236  1
