# generated using pymatgen
data_MnCr2Fe5Tc2
_symmetry_space_group_name_H-M   'P 1'
_cell_length_a   3.79386152
_cell_length_b   8.03133514
_cell_length_c   8.03133514
_cell_angle_alpha   90.00000000
_cell_angle_beta   90.00000000
_cell_angle_gamma   90.00000000
_symmetry_Int_Tables_number   1
_chemical_formula_structural   MnCr2Fe5Tc2
_chemical_formula_sum   'Mn2 Cr4 Fe10 Tc4'
_cell_volume   244.71296135
_cell_formula_units_Z   2
loop_
 _symmetry_equiv_pos_site_id
 _symmetry_equiv_pos_as_xyz
  1  'x, y, z'
loop_
 _atom_site_type_symbol
 _atom_site_label
 _atom_site_symmetry_multiplicity
 _atom_site_fract_x
 _atom_site_fract_y
 _atom_site_fract_z
 _atom_site_occupancy
  Mn  Mn0  1  0.00000000  0.00000000  0.00000000  1
  Mn  Mn1  1  0.00000000  0.50000000  0.50000000  1
  Cr  Cr2  1  0.00000000  0.12865742  0.62865742  1
  Cr  Cr3  1  0.00000000  0.87134258  0.37134258  1
  Cr  Cr4  1  0.00000000  0.62865742  0.87134258  1
  Cr  Cr5  1  0.00000000  0.37134258  0.12865742  1
  Fe  Fe6  1  0.50000000  0.19951627  0.06849323  1
  Fe  Fe7  1  0.50000000  0.80048373  0.93150677  1
  Fe  Fe8  1  0.50000000  0.06849323  0.80048373  1
  Fe  Fe9  1  0.50000000  0.69951627  0.43150677  1
  Fe  Fe10  1  0.50000000  0.93150677  0.19951627  1
  Fe  Fe11  1  0.50000000  0.30048373  0.56849323  1
  Fe  Fe12  1  0.50000000  0.56849323  0.69951627  1
  Fe  Fe13  1  0.50000000  0.43150677  0.30048373  1
  Fe  Fe14  1  0.50000000  0.50000000  0.00000000  1
  Fe  Fe15  1  0.50000000  0.00000000  0.50000000  1
  Tc  Tc16  1  0.00000000  0.66825747  0.16825747  1
  Tc  Tc17  1  0.00000000  0.33174253  0.83174253  1
  Tc  Tc18  1  0.00000000  0.16825747  0.33174253  1
  Tc  Tc19  1  0.00000000  0.83174253  0.66825747  1
