# generated using pymatgen
data_Rb3NpO6
_symmetry_space_group_name_H-M   'P 1'
_cell_length_a   6.78002107
_cell_length_b   6.78002108
_cell_length_c   11.02734569
_cell_angle_alpha   90.00000000
_cell_angle_beta   90.00000000
_cell_angle_gamma   120.00000001
_symmetry_Int_Tables_number   1
_chemical_formula_structural   Rb3NpO6
_chemical_formula_sum   'Rb6 Np2 O12'
_cell_volume   438.99917930
_cell_formula_units_Z   2
loop_
 _symmetry_equiv_pos_site_id
 _symmetry_equiv_pos_as_xyz
  1  'x, y, z'
loop_
 _atom_site_type_symbol
 _atom_site_label
 _atom_site_symmetry_multiplicity
 _atom_site_fract_x
 _atom_site_fract_y
 _atom_site_fract_z
 _atom_site_occupancy
  Rb  Rb0  1  0.00000000  0.00000000  0.50000000  1
  Rb  Rb1  1  0.00000000  0.00000000  0.00000000  1
  Rb  Rb2  1  0.66666667  0.33333333  0.08375019  1
  Rb  Rb3  1  0.33333333  0.66666667  0.58375019  1
  Rb  Rb4  1  0.33333333  0.66666667  0.91624981  1
  Rb  Rb5  1  0.66666667  0.33333333  0.41624981  1
  Np  Np6  1  0.66666667  0.33333333  0.75000000  1
  Np  Np7  1  0.33333333  0.66666667  0.25000000  1
  O  O8  1  0.89157872  0.57104390  0.64304091  1
  O  O9  1  0.42895610  0.32053482  0.64304091  1
  O  O10  1  0.10842128  0.42895610  0.14304091  1
  O  O11  1  0.32053482  0.42895610  0.35695909  1
  O  O12  1  0.67946518  0.10842128  0.64304091  1
  O  O13  1  0.57104390  0.67946518  0.14304091  1
  O  O14  1  0.10842128  0.67946518  0.35695909  1
  O  O15  1  0.67946518  0.57104390  0.85695909  1
  O  O16  1  0.32053482  0.89157872  0.14304091  1
  O  O17  1  0.89157872  0.32053482  0.85695909  1
  O  O18  1  0.57104390  0.89157872  0.35695909  1
  O  O19  1  0.42895610  0.10842128  0.85695909  1
