# generated using pymatgen
data_CdReIr2
_symmetry_space_group_name_H-M   'P 1'
_cell_length_a   6.13902328
_cell_length_b   6.13902328
_cell_length_c   6.13902330
_cell_angle_alpha   153.94675893
_cell_angle_beta   137.72357939
_cell_angle_gamma   50.33525405
_symmetry_Int_Tables_number   1
_chemical_formula_structural   CdReIr2
_chemical_formula_sum   'Cd1 Re1 Ir2'
_cell_volume   68.08452400
_cell_formula_units_Z   1
loop_
 _symmetry_equiv_pos_site_id
 _symmetry_equiv_pos_as_xyz
  1  'x, y, z'
loop_
 _atom_site_type_symbol
 _atom_site_label
 _atom_site_symmetry_multiplicity
 _atom_site_fract_x
 _atom_site_fract_y
 _atom_site_fract_z
 _atom_site_occupancy
  Re  Re0  1  0.53006772  0.53006772  0.00000000  1
  Ir  Ir1  1  0.95988984  0.95988984  -0.00000000  1
  Ir  Ir2  1  0.72078958  0.22078958  0.50000000  1
  Cd  Cd3  1  0.28925286  0.78925286  0.50000000  1
