# generated using pymatgen
data_Ni2MoPt3
_symmetry_space_group_name_H-M   'P 1'
_cell_length_a   2.70493934
_cell_length_b   7.59837657
_cell_length_c   9.14280610
_cell_angle_alpha   107.75193819
_cell_angle_beta   98.50682358
_cell_angle_gamma   90.00000000
_symmetry_Int_Tables_number   1
_chemical_formula_structural   Ni2MoPt3
_chemical_formula_sum   'Ni4 Mo2 Pt6'
_cell_volume   176.79406361
_cell_formula_units_Z   2
loop_
 _symmetry_equiv_pos_site_id
 _symmetry_equiv_pos_as_xyz
  1  'x, y, z'
loop_
 _atom_site_type_symbol
 _atom_site_label
 _atom_site_symmetry_multiplicity
 _atom_site_fract_x
 _atom_site_fract_y
 _atom_site_fract_z
 _atom_site_occupancy
  Ni  Ni0  1  0.30420270  0.61588742  0.60840540  1
  Ni  Ni1  1  0.69579730  0.38411258  0.39159460  1
  Ni  Ni2  1  0.92797250  0.84772129  0.85594600  1
  Ni  Ni3  1  0.07202750  0.15227871  0.14405400  1
  Mo  Mo4  1  0.32970691  0.94928246  0.65941482  1
  Mo  Mo5  1  0.67029309  0.05071754  0.34058518  1
  Pt  Pt6  1  0.29591123  0.25960184  0.59182346  1
  Pt  Pt7  1  0.06237890  0.78964069  0.12475780  1
  Pt  Pt8  1  0.43231170  0.54739646  0.86462240  1
  Pt  Pt9  1  0.70408877  0.74039816  0.40817654  1
  Pt  Pt10  1  0.56768830  0.45260354  0.13537760  1
  Pt  Pt11  1  0.93762110  0.21035931  0.87524220  1
