# generated using pymatgen
data_Na2Pm(CO3)2
_symmetry_space_group_name_H-M   'P 1'
_cell_length_a   5.23175500
_cell_length_b   5.23175500
_cell_length_c   7.76166740
_cell_angle_alpha   90.00000000
_cell_angle_beta   90.00000000
_cell_angle_gamma   119.99999996
_symmetry_Int_Tables_number   1
_chemical_formula_structural   Na2Pm(CO3)2
_chemical_formula_sum   'Na2 Pm1 C2 O6'
_cell_volume   183.98416928
_cell_formula_units_Z   1
loop_
 _symmetry_equiv_pos_site_id
 _symmetry_equiv_pos_as_xyz
  1  'x, y, z'
loop_
 _atom_site_type_symbol
 _atom_site_label
 _atom_site_symmetry_multiplicity
 _atom_site_fract_x
 _atom_site_fract_y
 _atom_site_fract_z
 _atom_site_occupancy
  Na  Na0  1  0.66666667  0.33333333  0.66474354  1
  Na  Na1  1  0.33333333  0.66666667  0.33525646  1
  Pm  Pm2  1  0.00000000  0.00000000  0.00000000  1
  C  C3  1  0.33333333  0.66666667  0.83027721  1
  C  C4  1  0.66666667  0.33333333  0.16972279  1
  O  O5  1  0.09396759  0.41045364  0.82785699  1
  O  O6  1  0.58954636  0.68351395  0.82785699  1
  O  O7  1  0.31648605  0.90603241  0.82785699  1
  O  O8  1  0.90603241  0.58954636  0.17214301  1
  O  O9  1  0.41045364  0.31648605  0.17214301  1
  O  O10  1  0.68351395  0.09396759  0.17214301  1
