# generated using pymatgen
data_Tm2ThMgAu4
_symmetry_space_group_name_H-M   'P 1'
_cell_length_a   4.92899902
_cell_length_b   4.92899902
_cell_length_c   9.05508180
_cell_angle_alpha   74.20670999
_cell_angle_beta   74.20670995
_cell_angle_gamma   60.00000002
_symmetry_Int_Tables_number   1
_chemical_formula_structural   Tm2ThMgAu4
_chemical_formula_sum   'Tm2 Th1 Mg1 Au4'
_cell_volume   180.86687655
_cell_formula_units_Z   1
loop_
 _symmetry_equiv_pos_site_id
 _symmetry_equiv_pos_as_xyz
  1  'x, y, z'
loop_
 _atom_site_type_symbol
 _atom_site_label
 _atom_site_symmetry_multiplicity
 _atom_site_fract_x
 _atom_site_fract_y
 _atom_site_fract_z
 _atom_site_occupancy
  Tm  Tm0  1  0.75937643  0.75937643  0.72187070  1
  Tm  Tm1  1  0.24062357  0.24062357  0.27812930  1
  Th  Th2  1  0.00000000  0.00000000  0.00000000  1
  Mg  Mg3  1  0.50000000  0.50000000  0.50000000  1
  Au  Au4  1  0.38740101  0.38740101  0.83779696  1
  Au  Au5  1  0.87633572  0.87633572  0.37099283  1
  Au  Au6  1  0.12366428  0.12366428  0.62900717  1
  Au  Au7  1  0.61259899  0.61259899  0.16220304  1
