# generated using pymatgen
data_CsNa2AuO
_symmetry_space_group_name_H-M   'P 1'
_cell_length_a   4.31516578
_cell_length_b   7.75384807
_cell_length_c   8.73351362
_cell_angle_alpha   90.00000000
_cell_angle_beta   90.00000000
_cell_angle_gamma   106.15636137
_symmetry_Int_Tables_number   1
_chemical_formula_structural   CsNa2AuO
_chemical_formula_sum   'Cs2 Na4 Au2 O2'
_cell_volume   280.67505078
_cell_formula_units_Z   2
loop_
 _symmetry_equiv_pos_site_id
 _symmetry_equiv_pos_as_xyz
  1  'x, y, z'
loop_
 _atom_site_type_symbol
 _atom_site_label
 _atom_site_symmetry_multiplicity
 _atom_site_fract_x
 _atom_site_fract_y
 _atom_site_fract_z
 _atom_site_occupancy
  Cs  Cs0  1  0.46533163  0.93066327  0.75000000  1
  Cs  Cs1  1  0.53466837  0.06933673  0.25000000  1
  Na  Na2  1  0.14200939  0.28401877  0.95570116  1
  Na  Na3  1  0.85799061  0.71598123  0.04429884  1
  Na  Na4  1  0.14200939  0.28401877  0.54429884  1
  Na  Na5  1  0.85799061  0.71598123  0.45570116  1
  Au  Au6  1  0.73484675  0.46969351  0.75000000  1
  Au  Au7  1  0.26515325  0.53030649  0.25000000  1
  O  O8  1  0.00000000  0.00000000  0.00000000  1
  O  O9  1  0.00000000  0.00000000  0.50000000  1
