# generated using pymatgen
data_NaPt2O
_symmetry_space_group_name_H-M   'P 1'
_cell_length_a   5.29631673
_cell_length_b   5.29631673
_cell_length_c   7.12356811
_cell_angle_alpha   68.17665846
_cell_angle_beta   68.17665846
_cell_angle_gamma   90.00000000
_symmetry_Int_Tables_number   1
_chemical_formula_structural   NaPt2O
_chemical_formula_sum   'Na2 Pt4 O2'
_cell_volume   169.97994328
_cell_formula_units_Z   2
loop_
 _symmetry_equiv_pos_site_id
 _symmetry_equiv_pos_as_xyz
  1  'x, y, z'
loop_
 _atom_site_type_symbol
 _atom_site_label
 _atom_site_symmetry_multiplicity
 _atom_site_fract_x
 _atom_site_fract_y
 _atom_site_fract_z
 _atom_site_occupancy
  Na  Na0  1  0.00000000  0.00000000  0.00000000  1
  Na  Na1  1  0.75000000  0.25000000  0.50000000  1
  O  O2  1  0.50000000  0.50000000  0.00000000  1
  O  O3  1  0.25000000  0.75000000  0.50000000  1
  Pt  Pt4  1  0.37490465  0.12500000  0.25000000  1
  Pt  Pt5  1  0.37509535  0.62500000  0.25000000  1
  Pt  Pt6  1  0.37500000  0.62509535  0.75000000  1
  Pt  Pt7  1  0.87500000  0.62490465  0.75000000  1
