# generated using pymatgen
data_K3Tb2NdSe6
_symmetry_space_group_name_H-M   'P 1'
_cell_length_a   7.39814563
_cell_length_b   7.39814562
_cell_length_c   8.08015479
_cell_angle_alpha   98.77812525
_cell_angle_beta   98.77812525
_cell_angle_gamma   120.00576088
_symmetry_Int_Tables_number   1
_chemical_formula_structural   K3Tb2NdSe6
_chemical_formula_sum   'K3 Tb2 Nd1 Se6'
_cell_volume   364.69760175
_cell_formula_units_Z   1
loop_
 _symmetry_equiv_pos_site_id
 _symmetry_equiv_pos_as_xyz
  1  'x, y, z'
loop_
 _atom_site_type_symbol
 _atom_site_label
 _atom_site_symmetry_multiplicity
 _atom_site_fract_x
 _atom_site_fract_y
 _atom_site_fract_z
 _atom_site_occupancy
  K  K0  1  0.16537559  0.83462441  0.50000000  1
  K  K1  1  0.83462441  0.16537559  0.50000000  1
  K  K2  1  0.50000000  0.50000000  0.50000000  1
  Tb  Tb3  1  0.33316199  0.66683801  0.00000000  1
  Tb  Tb4  1  0.66683801  0.33316199  -0.00000000  1
  Nd  Nd5  1  0.00000000  0.00000000  0.00000000  1
  Se  Se6  1  0.93076224  0.59060332  0.79245272  1
  Se  Se7  1  0.72889446  0.72889446  0.20732693  1
  Se  Se8  1  0.06923776  0.40939668  0.20754728  1
  Se  Se9  1  0.59060332  0.93076224  0.79245272  1
  Se  Se10  1  0.27110554  0.27110554  0.79267307  1
  Se  Se11  1  0.40939668  0.06923776  0.20754728  1
