# generated using pymatgen
data_Ca2YMo
_symmetry_space_group_name_H-M   'P 1'
_cell_length_a   6.71783071
_cell_length_b   6.71783072
_cell_length_c   6.71783072
_cell_angle_alpha   150.29088258
_cell_angle_beta   127.23597356
_cell_angle_gamma   61.72842428
_symmetry_Int_Tables_number   1
_chemical_formula_structural   Ca2YMo
_chemical_formula_sum   'Ca2 Y1 Mo1'
_cell_volume   118.58219829
_cell_formula_units_Z   1
loop_
 _symmetry_equiv_pos_site_id
 _symmetry_equiv_pos_as_xyz
  1  'x, y, z'
loop_
 _atom_site_type_symbol
 _atom_site_label
 _atom_site_symmetry_multiplicity
 _atom_site_fract_x
 _atom_site_fract_y
 _atom_site_fract_z
 _atom_site_occupancy
  Y  Y0  1  0.29998530  0.79998530  0.50000000  1
  Mo  Mo1  1  0.48957491  0.48957491  1.00000000  1
  Ca  Ca2  1  0.00237983  0.00237983  1.00000000  1
  Ca  Ca3  1  0.70805995  0.20805995  0.50000000  1
