# generated using pymatgen
data_Se
_symmetry_space_group_name_H-M   'P 1'
_cell_length_a   8.71717953
_cell_length_b   8.71717953
_cell_length_c   8.71717953
_cell_angle_alpha   90.00000000
_cell_angle_beta   90.00000000
_cell_angle_gamma   90.00000000
_symmetry_Int_Tables_number   1
_chemical_formula_structural   Se
_chemical_formula_sum   Se16
_cell_volume   662.41166400
_cell_formula_units_Z   16
loop_
 _symmetry_equiv_pos_site_id
 _symmetry_equiv_pos_as_xyz
  1  'x, y, z'
loop_
 _atom_site_type_symbol
 _atom_site_label
 _atom_site_symmetry_multiplicity
 _atom_site_fract_x
 _atom_site_fract_y
 _atom_site_fract_z
 _atom_site_occupancy
  Se  Se0  1  0.17509323  0.17509323  0.17509323  1
  Se  Se1  1  0.17509323  0.82490677  0.82490677  1
  Se  Se2  1  0.82490677  0.17509323  0.82490677  1
  Se  Se3  1  0.82490677  0.82490677  0.17509323  1
  Se  Se4  1  0.82490677  0.82490677  0.82490677  1
  Se  Se5  1  0.82490677  0.17509323  0.17509323  1
  Se  Se6  1  0.17509323  0.82490677  0.17509323  1
  Se  Se7  1  0.17509323  0.17509323  0.82490677  1
  Se  Se8  1  0.67509323  0.67509323  0.67509323  1
  Se  Se9  1  0.67509323  0.32490677  0.32490677  1
  Se  Se10  1  0.32490677  0.67509323  0.32490677  1
  Se  Se11  1  0.32490677  0.32490677  0.67509323  1
  Se  Se12  1  0.32490677  0.32490677  0.32490677  1
  Se  Se13  1  0.32490677  0.67509323  0.67509323  1
  Se  Se14  1  0.67509323  0.32490677  0.67509323  1
  Se  Se15  1  0.67509323  0.67509323  0.32490677  1
