# generated using pymatgen
data_Cs2TlAsF6
_symmetry_space_group_name_H-M   'P 1'
_cell_length_a   6.76269305
_cell_length_b   6.75871229
_cell_length_c   6.75873662
_cell_angle_alpha   59.96153600
_cell_angle_beta   59.98063396
_cell_angle_gamma   59.98051478
_symmetry_Int_Tables_number   1
_chemical_formula_structural   Cs2TlAsF6
_chemical_formula_sum   'Cs2 Tl1 As1 F6'
_cell_volume   218.31332834
_cell_formula_units_Z   1
loop_
 _symmetry_equiv_pos_site_id
 _symmetry_equiv_pos_as_xyz
  1  'x, y, z'
loop_
 _atom_site_type_symbol
 _atom_site_label
 _atom_site_symmetry_multiplicity
 _atom_site_fract_x
 _atom_site_fract_y
 _atom_site_fract_z
 _atom_site_occupancy
  Cs  Cs0  1  0.75005065  0.74994902  0.74994968  1
  Cs  Cs1  1  0.24994935  0.25005098  0.25005032  1
  Tl  Tl2  1  0.50000000  0.50000000  0.50000000  1
  As  As3  1  0.00000000  0.00000000  0.00000000  1
  F  F4  1  0.78271049  0.78232611  0.21767280  1
  F  F5  1  0.78251764  0.21748330  0.21748143  1
  F  F6  1  0.21748236  0.78251670  0.78251857  1
  F  F7  1  0.21728951  0.21767389  0.78232720  1
  F  F8  1  0.21729060  0.78232611  0.21767280  1
  F  F9  1  0.78270940  0.21767389  0.78232720  1
