# generated using pymatgen
data_Pu2Ga4Cu3Ni
_symmetry_space_group_name_H-M   'P 1'
_cell_length_a   4.15465660
_cell_length_b   4.15465660
_cell_length_c   10.05579395
_cell_angle_alpha   90.00000000
_cell_angle_beta   90.00000000
_cell_angle_gamma   90.00000000
_symmetry_Int_Tables_number   1
_chemical_formula_structural   Pu2Ga4Cu3Ni
_chemical_formula_sum   'Pu2 Ga4 Cu3 Ni1'
_cell_volume   173.57478358
_cell_formula_units_Z   1
loop_
 _symmetry_equiv_pos_site_id
 _symmetry_equiv_pos_as_xyz
  1  'x, y, z'
loop_
 _atom_site_type_symbol
 _atom_site_label
 _atom_site_symmetry_multiplicity
 _atom_site_fract_x
 _atom_site_fract_y
 _atom_site_fract_z
 _atom_site_occupancy
  Pu  Pu0  1  0.50000000  0.00000000  0.25610978  1
  Pu  Pu1  1  0.00000000  0.50000000  0.74389022  1
  Ga  Ga2  1  0.50000000  0.50000000  0.00000000  1
  Ga  Ga3  1  0.00000000  0.00000000  0.00000000  1
  Ga  Ga4  1  0.50000000  0.00000000  0.62515230  1
  Ga  Ga5  1  0.00000000  0.50000000  0.37484770  1
  Cu  Cu6  1  0.00000000  0.00000000  0.50000000  1
  Cu  Cu7  1  0.50000000  0.00000000  0.86446249  1
  Cu  Cu8  1  0.00000000  0.50000000  0.13553751  1
  Ni  Ni9  1  0.50000000  0.50000000  0.50000000  1
