# generated using pymatgen
data_Er4TlOs
_symmetry_space_group_name_H-M   'P 1'
_cell_length_a   6.11672186
_cell_length_b   7.81482705
_cell_length_c   7.81483288
_cell_angle_alpha   112.41092937
_cell_angle_beta   99.49436247
_cell_angle_gamma   99.49432644
_symmetry_Int_Tables_number   1
_chemical_formula_structural   Er4TlOs
_chemical_formula_sum   'Er8 Tl2 Os2'
_cell_volume   329.80888120
_cell_formula_units_Z   2
loop_
 _symmetry_equiv_pos_site_id
 _symmetry_equiv_pos_as_xyz
  1  'x, y, z'
loop_
 _atom_site_type_symbol
 _atom_site_label
 _atom_site_symmetry_multiplicity
 _atom_site_fract_x
 _atom_site_fract_y
 _atom_site_fract_z
 _atom_site_occupancy
  Er  Er0  1  0.89085768  0.65110878  0.79998926  1
  Er  Er1  1  0.04744775  0.93956478  0.27606226  1
  Er  Er2  1  0.60914232  0.20001074  0.34889122  1
  Er  Er3  1  0.45255225  0.72393774  0.06043522  1
  Er  Er4  1  0.54744775  0.27606226  0.93956478  1
  Er  Er5  1  0.39085768  0.79998926  0.65110878  1
  Er  Er6  1  0.95255225  0.06043522  0.72393774  1
  Er  Er7  1  0.10914232  0.34889122  0.20001074  1
  Tl  Tl8  1  0.75000000  0.62574016  0.37425984  1
  Tl  Tl9  1  0.25000000  0.37425984  0.62574016  1
  Os  Os10  1  0.24999800  0.99967352  0.00032748  1
  Os  Os11  1  0.75000200  0.00032648  0.99967252  1
