# generated using pymatgen
data_Th3ZnCo8
_symmetry_space_group_name_H-M   'P 1'
_cell_length_a   5.04100804
_cell_length_b   5.04100805
_cell_length_c   8.80069535
_cell_angle_alpha   73.35755128
_cell_angle_beta   73.35755130
_cell_angle_gamma   60.00000004
_symmetry_Int_Tables_number   1
_chemical_formula_structural   Th3ZnCo8
_chemical_formula_sum   'Th3 Zn1 Co8'
_cell_volume   182.78148689
_cell_formula_units_Z   1
loop_
 _symmetry_equiv_pos_site_id
 _symmetry_equiv_pos_as_xyz
  1  'x, y, z'
loop_
 _atom_site_type_symbol
 _atom_site_label
 _atom_site_symmetry_multiplicity
 _atom_site_fract_x
 _atom_site_fract_y
 _atom_site_fract_z
 _atom_site_occupancy
  Th  Th0  1  0.37708367  0.37708367  0.86874898  1
  Th  Th1  1  0.98969769  0.98969769  0.03090694  1
  Th  Th2  1  0.50746181  0.50746181  0.47761457  1
  Zn  Zn3  1  0.86869824  0.86869824  0.39390527  1
  Co  Co4  1  0.93773266  0.43546703  0.19133328  1
  Co  Co5  1  0.44391248  0.93884673  0.67839405  1
  Co  Co6  1  0.43546703  0.43546703  0.19133328  1
  Co  Co7  1  0.93884673  0.93884673  0.67839405  1
  Co  Co8  1  0.18925517  0.18925517  0.43223448  1
  Co  Co9  1  0.68752875  0.68752875  0.93741376  1
  Co  Co10  1  0.43546703  0.93773266  0.19133328  1
  Co  Co11  1  0.93884673  0.44391248  0.67839405  1
