# generated using pymatgen
data_Th3Cd4(InAg)2
_symmetry_space_group_name_H-M   'P 1'
_cell_length_a   4.39895021
_cell_length_b   4.39895021
_cell_length_c   14.84661177
_cell_angle_alpha   98.51953474
_cell_angle_beta   98.51953478
_cell_angle_gamma   90.00000000
_symmetry_Int_Tables_number   1
_chemical_formula_structural   Th3Cd4(InAg)2
_chemical_formula_sum   'Th3 Cd4 In2 Ag2'
_cell_volume   280.91716555
_cell_formula_units_Z   1
loop_
 _symmetry_equiv_pos_site_id
 _symmetry_equiv_pos_as_xyz
  1  'x, y, z'
loop_
 _atom_site_type_symbol
 _atom_site_label
 _atom_site_symmetry_multiplicity
 _atom_site_fract_x
 _atom_site_fract_y
 _atom_site_fract_z
 _atom_site_occupancy
  Th  Th0  1  0.00000000  0.00000000  0.00000000  1
  Th  Th1  1  0.21010827  0.21010727  0.42021553  1
  Th  Th2  1  0.78989173  0.78989273  0.57978447  1
  Cd  Cd3  1  0.38616387  0.88616487  0.77232875  1
  Cd  Cd4  1  0.88616387  0.38616487  0.77232875  1
  Cd  Cd5  1  0.11383613  0.61383513  0.22767125  1
  Cd  Cd6  1  0.61383613  0.11383513  0.22767125  1
  In  In7  1  0.45244742  0.45244742  0.90489483  1
  In  In8  1  0.54755258  0.54755258  0.09510517  1
  Ag  Ag9  1  0.31889869  0.31889769  0.63779638  1
  Ag  Ag10  1  0.68110131  0.68110231  0.36220362  1
