# generated using pymatgen
data_Ti2ZnTc2
_symmetry_space_group_name_H-M   'P 1'
_cell_length_a   6.97703748
_cell_length_b   6.97703748
_cell_length_c   3.25806101
_cell_angle_alpha   90.00000000
_cell_angle_beta   90.00000000
_cell_angle_gamma   90.00000000
_symmetry_Int_Tables_number   1
_chemical_formula_structural   Ti2ZnTc2
_chemical_formula_sum   'Ti4 Zn2 Tc4'
_cell_volume   158.59932132
_cell_formula_units_Z   2
loop_
 _symmetry_equiv_pos_site_id
 _symmetry_equiv_pos_as_xyz
  1  'x, y, z'
loop_
 _atom_site_type_symbol
 _atom_site_label
 _atom_site_symmetry_multiplicity
 _atom_site_fract_x
 _atom_site_fract_y
 _atom_site_fract_z
 _atom_site_occupancy
  Zn  Zn0  1  0.00000000  0.00000000  0.00000000  1
  Zn  Zn1  1  0.50000000  0.50000000  0.00000000  1
  Tc  Tc2  1  0.35387671  0.85387671  0.00000000  1
  Tc  Tc3  1  0.85387671  0.64612329  0.00000000  1
  Tc  Tc4  1  0.64612329  0.14612329  0.00000000  1
  Tc  Tc5  1  0.14612329  0.35387671  0.00000000  1
  Ti  Ti6  1  0.15699203  0.65699203  0.50000000  1
  Ti  Ti7  1  0.65699203  0.84300797  0.50000000  1
  Ti  Ti8  1  0.84300797  0.34300797  0.50000000  1
  Ti  Ti9  1  0.34300797  0.15699203  0.50000000  1
