# generated using pymatgen
data_Sb6O5F8
_symmetry_space_group_name_H-M   'P 1'
_cell_length_a   4.26675097
_cell_length_b   6.56280753
_cell_length_c   13.82577910
_cell_angle_alpha   88.67842181
_cell_angle_beta   103.55834654
_cell_angle_gamma   95.76120561
_symmetry_Int_Tables_number   1
_chemical_formula_structural   Sb6O5F8
_chemical_formula_sum   'Sb6 O5 F8'
_cell_volume   374.45738921
_cell_formula_units_Z   1
loop_
 _symmetry_equiv_pos_site_id
 _symmetry_equiv_pos_as_xyz
  1  'x, y, z'
loop_
 _atom_site_type_symbol
 _atom_site_label
 _atom_site_symmetry_multiplicity
 _atom_site_fract_x
 _atom_site_fract_y
 _atom_site_fract_z
 _atom_site_occupancy
  Sb  Sb0  1  0.36453842  0.12892783  0.05784853  1
  Sb  Sb1  1  0.87139947  0.32863287  0.72838264  1
  Sb  Sb2  1  0.80118448  0.22446373  0.39522416  1
  Sb  Sb3  1  0.43173559  0.83077349  0.53567631  1
  Sb  Sb4  1  0.74532019  0.79634634  0.94791077  1
  Sb  Sb5  1  0.07135893  0.85151262  0.24208615  1
  O  O6  1  0.10705477  0.06102742  0.34779546  1
  O  O7  1  0.83220360  0.02515040  0.05531477  1
  O  O8  1  0.25480977  0.85851307  0.98690329  1
  O  O9  1  0.43585368  0.01374869  0.19805765  1
  O  O10  1  0.77466573  0.03061847  0.50520892  1
  F  F11  1  0.50056685  0.96516958  0.66706498  1
  F  F12  1  0.99855296  0.56737706  0.81625170  1
  F  F13  1  0.41826883  0.35562498  0.75416344  1
  F  F14  1  0.19073677  0.36848120  0.48490213  1
  F  F15  1  0.78893824  0.57534335  0.04918533  1
  F  F16  1  0.94450258  0.15618814  0.84847980  1
  F  F17  1  0.77313351  0.64719425  0.59520318  1
  F  F18  1  0.42271063  0.71490452  0.34122478  1
