# generated using pymatgen
data_AsHIrOsAu
_symmetry_space_group_name_H-M   'P 1'
_cell_length_a   4.69761012
_cell_length_b   2.96264013
_cell_length_c   5.10876103
_cell_angle_alpha   90.00000000
_cell_angle_beta   104.54502589
_cell_angle_gamma   90.00000000
_symmetry_Int_Tables_number   1
_chemical_formula_structural   AsHIrOsAu
_chemical_formula_sum   'As1 H1 Ir1 Os1 Au1'
_cell_volume   68.82158072
_cell_formula_units_Z   1
loop_
 _symmetry_equiv_pos_site_id
 _symmetry_equiv_pos_as_xyz
  1  'x, y, z'
loop_
 _atom_site_type_symbol
 _atom_site_label
 _atom_site_symmetry_multiplicity
 _atom_site_fract_x
 _atom_site_fract_y
 _atom_site_fract_z
 _atom_site_occupancy
  As  As0  1  0.25582047  0.00000000  0.29142887  1
  H  H1  1  0.77128196  0.50000000  0.33260861  1
  Ir  Ir2  1  0.70790846  0.00000000  0.10272691  1
  Os  Os3  1  0.58591237  0.50000000  0.61311220  1
  Au  Au4  1  0.11566675  0.00000000  0.76593341  1
