# generated using pymatgen
data_HfNbGa2
_symmetry_space_group_name_H-M   'P 1'
_cell_length_a   7.27031034
_cell_length_b   7.27031034
_cell_length_c   5.88356984
_cell_angle_alpha   51.84080522
_cell_angle_beta   51.84080522
_cell_angle_gamma   90.00000000
_symmetry_Int_Tables_number   1
_chemical_formula_structural   HfNbGa2
_chemical_formula_sum   'Hf2 Nb2 Ga4'
_cell_volume   151.24691934
_cell_formula_units_Z   2
loop_
 _symmetry_equiv_pos_site_id
 _symmetry_equiv_pos_as_xyz
  1  'x, y, z'
loop_
 _atom_site_type_symbol
 _atom_site_label
 _atom_site_symmetry_multiplicity
 _atom_site_fract_x
 _atom_site_fract_y
 _atom_site_fract_z
 _atom_site_occupancy
  Nb  Nb0  1  0.50000000  0.50000000  0.00000000  1
  Nb  Nb1  1  0.25000000  0.75000000  0.50000000  1
  Hf  Hf2  1  0.00000000  0.00000000  0.00000000  1
  Hf  Hf3  1  0.75000000  0.25000000  0.50000000  1
  Ga  Ga4  1  0.61626851  0.12500000  0.25000000  1
  Ga  Ga5  1  0.13373149  0.62500000  0.25000000  1
  Ga  Ga6  1  0.37500000  0.38373149  0.75000000  1
  Ga  Ga7  1  0.87500000  0.86626851  0.75000000  1
