# generated using pymatgen
data_As(RuS)2
_symmetry_space_group_name_H-M   'P 1'
_cell_length_a   7.31259904
_cell_length_b   7.31259904
_cell_length_c   2.94274632
_cell_angle_alpha   90.00000000
_cell_angle_beta   90.00000000
_cell_angle_gamma   90.00000000
_symmetry_Int_Tables_number   1
_chemical_formula_structural   As(RuS)2
_chemical_formula_sum   'As2 Ru4 S4'
_cell_volume   157.36072488
_cell_formula_units_Z   2
loop_
 _symmetry_equiv_pos_site_id
 _symmetry_equiv_pos_as_xyz
  1  'x, y, z'
loop_
 _atom_site_type_symbol
 _atom_site_label
 _atom_site_symmetry_multiplicity
 _atom_site_fract_x
 _atom_site_fract_y
 _atom_site_fract_z
 _atom_site_occupancy
  Ru  Ru0  1  0.19691942  0.69691942  0.50000000  1
  Ru  Ru1  1  0.69691942  0.80308058  0.50000000  1
  Ru  Ru2  1  0.80308058  0.30308058  0.50000000  1
  Ru  Ru3  1  0.30308058  0.19691942  0.50000000  1
  As  As4  1  0.00000000  0.00000000  0.00000000  1
  As  As5  1  0.50000000  0.50000000  0.00000000  1
  S  S6  1  0.36387252  0.86387252  0.00000000  1
  S  S7  1  0.86387252  0.63612748  0.00000000  1
  S  S8  1  0.63612748  0.13612748  0.00000000  1
  S  S9  1  0.13612748  0.36387252  0.00000000  1
