# generated using pymatgen
data_Nd3Lu
_symmetry_space_group_name_H-M   'P 1'
_cell_length_a   3.68425510
_cell_length_b   6.31024616
_cell_length_c   6.89778778
_cell_angle_alpha   117.22016118
_cell_angle_beta   105.48943180
_cell_angle_gamma   90.00000000
_symmetry_Int_Tables_number   1
_chemical_formula_structural   Nd3Lu
_chemical_formula_sum   'Nd3 Lu1'
_cell_volume   136.02142323
_cell_formula_units_Z   1
loop_
 _symmetry_equiv_pos_site_id
 _symmetry_equiv_pos_as_xyz
  1  'x, y, z'
loop_
 _atom_site_type_symbol
 _atom_site_label
 _atom_site_symmetry_multiplicity
 _atom_site_fract_x
 _atom_site_fract_y
 _atom_site_fract_z
 _atom_site_occupancy
  Lu  Lu0  1  0.00000000  0.00030491  0.00000000  1
  Nd  Nd1  1  0.25391730  0.58836689  0.50783561  1
  Nd  Nd2  1  0.50000000  0.49746392  0.00000000  1
  Nd  Nd3  1  0.74608270  0.08053028  0.49216439  1
