# generated using pymatgen
data_Ba(IrPb)2
_symmetry_space_group_name_H-M   'P 1'
_cell_length_a   4.76426987
_cell_length_b   4.76426987
_cell_length_c   6.60849036
_cell_angle_alpha   68.87119322
_cell_angle_beta   68.87119322
_cell_angle_gamma   90.00000000
_symmetry_Int_Tables_number   1
_chemical_formula_structural   Ba(IrPb)2
_chemical_formula_sum   'Ba1 Ir2 Pb2'
_cell_volume   129.04720821
_cell_formula_units_Z   1
loop_
 _symmetry_equiv_pos_site_id
 _symmetry_equiv_pos_as_xyz
  1  'x, y, z'
loop_
 _atom_site_type_symbol
 _atom_site_label
 _atom_site_symmetry_multiplicity
 _atom_site_fract_x
 _atom_site_fract_y
 _atom_site_fract_z
 _atom_site_occupancy
  Pb  Pb0  1  0.75000000  0.25000000  0.50000000  1
  Pb  Pb1  1  0.25000000  0.75000000  0.50000000  1
  Ir  Ir2  1  0.39290002  0.39290002  0.21419995  1
  Ir  Ir3  1  0.60709998  0.60709998  0.78580005  1
  Ba  Ba4  1  0.00000000  0.00000000  0.00000000  1
