# generated using pymatgen
data_Pm2Ge2Rh5
_symmetry_space_group_name_H-M   'P 1'
_cell_length_a   4.22006221
_cell_length_b   4.22006221
_cell_length_c   9.05840032
_cell_angle_alpha   90.00000000
_cell_angle_beta   90.00000000
_cell_angle_gamma   90.00000000
_symmetry_Int_Tables_number   1
_chemical_formula_structural   Pm2Ge2Rh5
_chemical_formula_sum   'Pm2 Ge2 Rh5'
_cell_volume   161.32037243
_cell_formula_units_Z   1
loop_
 _symmetry_equiv_pos_site_id
 _symmetry_equiv_pos_as_xyz
  1  'x, y, z'
loop_
 _atom_site_type_symbol
 _atom_site_label
 _atom_site_symmetry_multiplicity
 _atom_site_fract_x
 _atom_site_fract_y
 _atom_site_fract_z
 _atom_site_occupancy
  Pm  Pm0  1  0.00000000  0.00000000  0.00000000  1
  Pm  Pm1  1  0.00000000  0.00000000  0.50000000  1
  Ge  Ge2  1  0.50000000  0.50000000  0.14242627  1
  Ge  Ge3  1  0.50000000  0.50000000  0.85757373  1
  Rh  Rh4  1  0.50000000  0.00000000  0.27100945  1
  Rh  Rh5  1  0.50000000  0.00000000  0.72899055  1
  Rh  Rh6  1  0.50000000  0.50000000  0.50000000  1
  Rh  Rh7  1  0.00000000  0.50000000  0.27100945  1
  Rh  Rh8  1  0.00000000  0.50000000  0.72899055  1
