# generated using pymatgen
data_CaY2AgHg4
_symmetry_space_group_name_H-M   'P 1'
_cell_length_a   5.14563319
_cell_length_b   5.14563319
_cell_length_c   9.00633582
_cell_angle_alpha   73.40125322
_cell_angle_beta   73.40125323
_cell_angle_gamma   59.99999995
_symmetry_Int_Tables_number   1
_chemical_formula_structural   CaY2AgHg4
_chemical_formula_sum   'Ca1 Y2 Ag1 Hg4'
_cell_volume   194.95846590
_cell_formula_units_Z   1
loop_
 _symmetry_equiv_pos_site_id
 _symmetry_equiv_pos_as_xyz
  1  'x, y, z'
loop_
 _atom_site_type_symbol
 _atom_site_label
 _atom_site_symmetry_multiplicity
 _atom_site_fract_x
 _atom_site_fract_y
 _atom_site_fract_z
 _atom_site_occupancy
  Ca  Ca0  1  0.00000000  0.00000000  0.00000000  1
  Y  Y1  1  0.75553506  0.75553506  0.73339483  1
  Y  Y2  1  0.24446494  0.24446494  0.26660517  1
  Ag  Ag3  1  0.50000000  0.50000000  0.50000000  1
  Hg  Hg4  1  0.37461317  0.37461317  0.87616048  1
  Hg  Hg5  1  0.87587219  0.87587219  0.37238344  1
  Hg  Hg6  1  0.12412781  0.12412781  0.62761656  1
  Hg  Hg7  1  0.62538683  0.62538683  0.12383952  1
