# generated using pymatgen
data_Na3Li2NiF6
_symmetry_space_group_name_H-M   'P 1'
_cell_length_a   5.57238698
_cell_length_b   5.57238699
_cell_length_c   5.38063875
_cell_angle_alpha   98.41279718
_cell_angle_beta   98.41279717
_cell_angle_gamma   122.31116686
_symmetry_Int_Tables_number   1
_chemical_formula_structural   Na3Li2NiF6
_chemical_formula_sum   'Na3 Li2 Ni1 F6'
_cell_volume   134.55647401
_cell_formula_units_Z   1
loop_
 _symmetry_equiv_pos_site_id
 _symmetry_equiv_pos_as_xyz
  1  'x, y, z'
loop_
 _atom_site_type_symbol
 _atom_site_label
 _atom_site_symmetry_multiplicity
 _atom_site_fract_x
 _atom_site_fract_y
 _atom_site_fract_z
 _atom_site_occupancy
  Na  Na0  1  0.16320394  0.83679606  0.50000000  1
  Na  Na1  1  0.83679606  0.16320394  0.50000000  1
  Na  Na2  1  0.50000000  0.50000000  0.50000000  1
  Li  Li3  1  0.32440593  0.67559407  0.00000000  1
  Li  Li4  1  0.67559407  0.32440593  0.00000000  1
  Ni  Ni5  1  0.00000000  0.00000000  0.00000000  1
  F  F6  1  0.91513480  0.56122495  0.76836288  1
  F  F7  1  0.74401997  0.74401997  0.22721173  1
  F  F8  1  0.08486520  0.43877505  0.23163712  1
  F  F9  1  0.56122495  0.91513480  0.76836288  1
  F  F10  1  0.25598003  0.25598003  0.77278827  1
  F  F11  1  0.43877505  0.08486520  0.23163712  1
