# generated using pymatgen
data_Nd3HfPa3N8
_symmetry_space_group_name_H-M   'P 1'
_cell_length_a   6.97659316
_cell_length_b   6.97682356
_cell_length_c   7.07362034
_cell_angle_alpha   119.54954212
_cell_angle_beta   89.99851304
_cell_angle_gamma   120.00011159
_symmetry_Int_Tables_number   1
_chemical_formula_structural   Nd3HfPa3N8
_chemical_formula_sum   'Nd3 Hf1 Pa3 N8'
_cell_volume   245.10733092
_cell_formula_units_Z   1
loop_
 _symmetry_equiv_pos_site_id
 _symmetry_equiv_pos_as_xyz
  1  'x, y, z'
loop_
 _atom_site_type_symbol
 _atom_site_label
 _atom_site_symmetry_multiplicity
 _atom_site_fract_x
 _atom_site_fract_y
 _atom_site_fract_z
 _atom_site_occupancy
  Nd  Nd0  1  0.00000000  0.00000000  0.00000000  1
  Nd  Nd1  1  0.00000000  0.50000000  0.00000000  1
  Nd  Nd2  1  0.50000000  0.50000000  0.00000000  1
  Hf  Hf3  1  0.00000000  0.00000000  0.50000000  1
  Pa  Pa4  1  0.50000000  0.00000000  0.50000000  1
  Pa  Pa5  1  0.50000000  0.50000000  0.50000000  1
  Pa  Pa6  1  -0.00000000  0.50000000  0.50000000  1
  N  N7  1  0.26106484  0.52217331  0.28333558  1
  N  N8  1  0.73893516  0.47782669  0.71666442  1
  N  N9  1  0.77493277  0.54988110  0.30218206  1
  N  N10  1  0.22506723  0.45011890  0.69781794  1
  N  N11  1  0.77491817  0.02718017  0.30215718  1
  N  N12  1  0.22508183  0.97281983  0.69784282  1
  N  N13  1  0.25231811  0.02721922  0.30215343  1
  N  N14  1  0.74768189  0.97278078  0.69784657  1
