# generated using pymatgen
data_RhAuICl
_symmetry_space_group_name_H-M   'P 1'
_cell_length_a   7.91406951
_cell_length_b   3.82300491
_cell_length_c   6.62337892
_cell_angle_alpha   90.00000000
_cell_angle_beta   105.95576144
_cell_angle_gamma   90.00000000
_symmetry_Int_Tables_number   1
_chemical_formula_structural   RhAuICl
_chemical_formula_sum   'Rh2 Au2 I2 Cl2'
_cell_volume   192.67349134
_cell_formula_units_Z   2
loop_
 _symmetry_equiv_pos_site_id
 _symmetry_equiv_pos_as_xyz
  1  'x, y, z'
loop_
 _atom_site_type_symbol
 _atom_site_label
 _atom_site_symmetry_multiplicity
 _atom_site_fract_x
 _atom_site_fract_y
 _atom_site_fract_z
 _atom_site_occupancy
  I  I0  1  0.65837534  0.00000000  0.13867392  1
  I  I1  1  0.65837534  0.50000000  0.63867392  1
  Rh  Rh2  1  0.83744516  0.00000000  0.53081172  1
  Rh  Rh3  1  0.83744516  0.50000000  0.03081172  1
  Au  Au4  1  0.04181395  0.00000000  0.93120939  1
  Au  Au5  1  0.04181395  0.50000000  0.43120939  1
  Cl  Cl6  1  0.23869554  0.00000000  0.32910497  1
  Cl  Cl7  1  0.23869554  0.50000000  0.82910497  1
