# generated using pymatgen
data_La2MgU2Ru5
_symmetry_space_group_name_H-M   'P 1'
_cell_length_a   3.28247388
_cell_length_b   11.08840053
_cell_length_c   11.08840053
_cell_angle_alpha   90.00000000
_cell_angle_beta   90.00000000
_cell_angle_gamma   90.00000000
_symmetry_Int_Tables_number   1
_chemical_formula_structural   La2MgU2Ru5
_chemical_formula_sum   'La4 Mg2 U4 Ru10'
_cell_volume   403.58878435
_cell_formula_units_Z   2
loop_
 _symmetry_equiv_pos_site_id
 _symmetry_equiv_pos_as_xyz
  1  'x, y, z'
loop_
 _atom_site_type_symbol
 _atom_site_label
 _atom_site_symmetry_multiplicity
 _atom_site_fract_x
 _atom_site_fract_y
 _atom_site_fract_z
 _atom_site_occupancy
  La  La0  1  0.00000000  0.65909243  0.15909243  1
  La  La1  1  0.00000000  0.34090757  0.84090757  1
  La  La2  1  0.00000000  0.15909243  0.34090757  1
  La  La3  1  0.00000000  0.84090757  0.65909243  1
  Mg  Mg4  1  0.00000000  0.00000000  0.00000000  1
  Mg  Mg5  1  0.00000000  0.50000000  0.50000000  1
  U  U6  1  0.00000000  0.15738705  0.65738705  1
  U  U7  1  0.00000000  0.84261295  0.34261295  1
  U  U8  1  0.00000000  0.65738705  0.84261295  1
  U  U9  1  0.00000000  0.34261295  0.15738705  1
  Ru  Ru10  1  0.50000000  0.20163125  0.06120546  1
  Ru  Ru11  1  0.50000000  0.79836875  0.93879454  1
  Ru  Ru12  1  0.50000000  0.06120546  0.79836875  1
  Ru  Ru13  1  0.50000000  0.70163125  0.43879454  1
  Ru  Ru14  1  0.50000000  0.93879454  0.20163125  1
  Ru  Ru15  1  0.50000000  0.29836875  0.56120546  1
  Ru  Ru16  1  0.50000000  0.56120546  0.70163125  1
  Ru  Ru17  1  0.50000000  0.43879454  0.29836875  1
  Ru  Ru18  1  0.50000000  0.50000000  0.00000000  1
  Ru  Ru19  1  0.50000000  0.00000000  0.50000000  1
