# generated using pymatgen
data_Hf3HgN
_symmetry_space_group_name_H-M   'P 1'
_cell_length_a   3.06821137
_cell_length_b   7.86434799
_cell_length_c   7.86434799
_cell_angle_alpha   133.53769906
_cell_angle_beta   90.00000000
_cell_angle_gamma   90.00000000
_symmetry_Int_Tables_number   1
_chemical_formula_structural   Hf3HgN
_chemical_formula_sum   'Hf3 Hg1 N1'
_cell_volume   137.56298066
_cell_formula_units_Z   1
loop_
 _symmetry_equiv_pos_site_id
 _symmetry_equiv_pos_as_xyz
  1  'x, y, z'
loop_
 _atom_site_type_symbol
 _atom_site_label
 _atom_site_symmetry_multiplicity
 _atom_site_fract_x
 _atom_site_fract_y
 _atom_site_fract_z
 _atom_site_occupancy
  Hf  Hf0  1  0.50000000  0.17924048  0.34348605  1
  Hf  Hf1  1  0.50000000  0.65651395  0.82075952  1
  Hf  Hf2  1  0.00000000  0.26900452  0.73099548  1
  Hg  Hg3  1  0.50000000  0.09106022  0.90893978  1
  N  N4  1  0.00000000  0.43223083  0.56776917  1
