# generated using pymatgen
data_Er6Tm2Sc3In
_symmetry_space_group_name_H-M   'P 1'
_cell_length_a   5.92350440
_cell_length_b   5.92350439
_cell_length_c   11.25737429
_cell_angle_alpha   95.03612573
_cell_angle_beta   95.03612567
_cell_angle_gamma   120.00313942
_symmetry_Int_Tables_number   1
_chemical_formula_structural   Er6Tm2Sc3In
_chemical_formula_sum   'Er6 Tm2 Sc3 In1'
_cell_volume   336.75348270
_cell_formula_units_Z   1
loop_
 _symmetry_equiv_pos_site_id
 _symmetry_equiv_pos_as_xyz
  1  'x, y, z'
loop_
 _atom_site_type_symbol
 _atom_site_label
 _atom_site_symmetry_multiplicity
 _atom_site_fract_x
 _atom_site_fract_y
 _atom_site_fract_z
 _atom_site_occupancy
  Er  Er0  1  0.91480580  0.58329695  0.74437703  1
  Er  Er1  1  0.75380497  0.75380497  0.25622560  1
  Er  Er2  1  0.08519420  0.41670305  0.25562297  1
  Er  Er3  1  0.58329695  0.91480580  0.74437703  1
  Er  Er4  1  0.24619503  0.24619503  0.74377440  1
  Er  Er5  1  0.41670305  0.08519420  0.25562297  1
  Tm  Tm6  1  0.33359310  0.66640690  -0.00000000  1
  Tm  Tm7  1  0.66640690  0.33359310  -0.00000000  1
  Sc  Sc8  1  0.16621618  0.83378382  0.50000000  1
  Sc  Sc9  1  0.83378382  0.16621618  0.50000000  1
  Sc  Sc10  1  0.50000000  0.50000000  0.50000000  1
  In  In11  1  0.00000000  0.00000000  0.00000000  1
