# generated using pymatgen
data_Sr(InBr4)3
_symmetry_space_group_name_H-M   'P 1'
_cell_length_a   11.96644592
_cell_length_b   11.96644644
_cell_length_c   13.71309600
_cell_angle_alpha   64.13102847
_cell_angle_beta   64.13102759
_cell_angle_gamma   59.99999936
_symmetry_Int_Tables_number   1
_chemical_formula_structural   Sr(InBr4)3
_chemical_formula_sum   'Sr2 In6 Br24'
_cell_volume   1468.98118258
_cell_formula_units_Z   2
loop_
 _symmetry_equiv_pos_site_id
 _symmetry_equiv_pos_as_xyz
  1  'x, y, z'
loop_
 _atom_site_type_symbol
 _atom_site_label
 _atom_site_symmetry_multiplicity
 _atom_site_fract_x
 _atom_site_fract_y
 _atom_site_fract_z
 _atom_site_occupancy
  Sr  Sr0  1  0.05267852  0.05267852  0.84196444  1
  Sr  Sr1  1  0.55267852  0.55267852  0.34196444  1
  In  In2  1  0.70810276  0.35318565  0.00050439  1
  In  In3  1  0.20810276  0.43820620  0.50050439  1
  In  In4  1  0.85318565  0.20810276  0.50050439  1
  In  In5  1  0.35318565  0.93820620  0.00050439  1
  In  In6  1  0.93820620  0.70810276  0.00050439  1
  In  In7  1  0.43820620  0.85318565  0.50050439  1
  Br  Br8  1  0.10398424  0.09385591  0.03500152  1
  Br  Br9  1  0.24758669  0.21825588  0.66146713  1
  Br  Br10  1  0.00066066  0.98085671  0.46819605  1
  Br  Br11  1  0.90269642  0.38818522  0.82499942  1
  Br  Br12  1  0.40269642  0.38411994  0.32499942  1
  Br  Br13  1  0.50066066  0.05028658  0.96819605  1
  Br  Br14  1  0.74758669  0.37269130  0.16146713  1
  Br  Br15  1  0.98085671  0.55028658  0.46819605  1
  Br  Br16  1  0.60398424  0.26715832  0.53500152  1
  Br  Br17  1  0.87269130  0.24758669  0.66146713  1
  Br  Br18  1  0.88818522  0.40269642  0.32499942  1
  Br  Br19  1  0.26715832  0.59385591  0.53500152  1
  Br  Br20  1  0.05028658  0.48085671  0.96819605  1
  Br  Br21  1  0.76715832  0.10398424  0.03500152  1
  Br  Br22  1  0.38818522  0.88411994  0.82499942  1
  Br  Br23  1  0.37269130  0.71825588  0.16146713  1
  Br  Br24  1  0.71825588  0.74758669  0.16146713  1
  Br  Br25  1  0.48085671  0.50066066  0.96819605  1
  Br  Br26  1  0.59385591  0.60398424  0.53500152  1
  Br  Br27  1  0.88411994  0.90269642  0.82499942  1
  Br  Br28  1  0.38411994  0.88818522  0.32499942  1
  Br  Br29  1  0.09385591  0.76715832  0.03500152  1
  Br  Br30  1  0.21825588  0.87269130  0.66146713  1
  Br  Br31  1  0.55028658  0.00066066  0.46819605  1
