# generated using pymatgen
data_Cs2Sb4S7
_symmetry_space_group_name_H-M   'P 1'
_cell_length_a   11.65113380
_cell_length_b   12.17335145
_cell_length_c   12.51022813
_cell_angle_alpha   90.00000000
_cell_angle_beta   90.00000000
_cell_angle_gamma   99.92160422
_symmetry_Int_Tables_number   1
_chemical_formula_structural   Cs2Sb4S7
_chemical_formula_sum   'Cs8 Sb16 S28'
_cell_volume   1747.83084011
_cell_formula_units_Z   4
loop_
 _symmetry_equiv_pos_site_id
 _symmetry_equiv_pos_as_xyz
  1  'x, y, z'
loop_
 _atom_site_type_symbol
 _atom_site_label
 _atom_site_symmetry_multiplicity
 _atom_site_fract_x
 _atom_site_fract_y
 _atom_site_fract_z
 _atom_site_occupancy
  Cs  Cs0  1  0.01639041  0.67486474  0.06808755  1
  Cs  Cs1  1  0.98360959  0.82513526  0.56808755  1
  Cs  Cs2  1  0.98360959  0.32513526  0.93191245  1
  Cs  Cs3  1  0.01639041  0.17486474  0.43191245  1
  Cs  Cs4  1  0.44960372  0.30573935  0.54454734  1
  Cs  Cs5  1  0.55039628  0.19426065  0.04454734  1
  Cs  Cs6  1  0.55039628  0.69426065  0.45545266  1
  Cs  Cs7  1  0.44960372  0.80573935  0.95545266  1
  Sb  Sb8  1  0.35901432  0.92617307  0.65933908  1
  Sb  Sb9  1  0.64098568  0.57382693  0.15933908  1
  Sb  Sb10  1  0.64098568  0.07382693  0.34066092  1
  Sb  Sb11  1  0.35901432  0.42617307  0.84066092  1
  Sb  Sb12  1  0.20297908  0.05505852  0.85864801  1
  Sb  Sb13  1  0.79702092  0.44494148  0.35864801  1
  Sb  Sb14  1  0.79702092  0.94494148  0.14135199  1
  Sb  Sb15  1  0.20297908  0.55505852  0.64135199  1
  Sb  Sb16  1  0.15902906  0.09020515  0.14756131  1
  Sb  Sb17  1  0.84097094  0.40979485  0.64756131  1
  Sb  Sb18  1  0.84097094  0.90979485  0.85243869  1
  Sb  Sb19  1  0.15902906  0.59020515  0.35243869  1
  Sb  Sb20  1  0.29733489  0.94956608  0.36044742  1
  Sb  Sb21  1  0.70266511  0.55043392  0.86044742  1
  Sb  Sb22  1  0.70266511  0.05043392  0.63955258  1
  Sb  Sb23  1  0.29733489  0.44956608  0.13955258  1
  S  S24  1  0.20005202  0.84315622  0.77157139  1
  S  S25  1  0.79994798  0.65684378  0.27157139  1
  S  S26  1  0.79994798  0.15684378  0.22842861  1
  S  S27  1  0.20005202  0.34315622  0.72842861  1
  S  S28  1  0.40855037  0.08394645  0.79373653  1
  S  S29  1  0.59144963  0.41605355  0.29373653  1
  S  S30  1  0.59144963  0.91605355  0.20626347  1
  S  S31  1  0.40855037  0.58394645  0.70626347  1
  S  S32  1  0.19976791  0.94110702  0.02468758  1
  S  S33  1  0.80023209  0.55889298  0.52468758  1
  S  S34  1  0.80023209  0.05889298  0.97531242  1
  S  S35  1  0.19976791  0.44110702  0.47531242  1
  S  S36  1  0.25144241  0.22430010  0.99612457  1
  S  S37  1  0.74855759  0.27569990  0.49612457  1
  S  S38  1  0.74855759  0.77569990  0.00387543  1
  S  S39  1  0.25144241  0.72430010  0.50387543  1
  S  S40  1  0.33693873  0.13409579  0.25969700  1
  S  S41  1  0.66306127  0.36590421  0.75969700  1
  S  S42  1  0.66306127  0.86590421  0.74030300  1
  S  S43  1  0.33693873  0.63409579  0.24030300  1
  S  S44  1  0.10168393  0.90444630  0.29433284  1
  S  S45  1  0.89831607  0.59555370  0.79433284  1
  S  S46  1  0.89831607  0.09555370  0.70566716  1
  S  S47  1  0.10168393  0.40444630  0.20566716  1
  S  S48  1  0.25953773  0.54099598  0.96565372  1
  S  S49  1  0.74046227  0.95900402  0.46565372  1
  S  S50  1  0.74046227  0.45900402  0.03434628  1
  S  S51  1  0.25953773  0.04099598  0.53434628  1
