# generated using pymatgen
data_TaCdInH
_symmetry_space_group_name_H-M   'P 1'
_cell_length_a   7.64062090
_cell_length_b   3.34187321
_cell_length_c   5.27506700
_cell_angle_alpha   90.00000000
_cell_angle_beta   94.95393649
_cell_angle_gamma   90.00000000
_symmetry_Int_Tables_number   1
_chemical_formula_structural   TaCdInH
_chemical_formula_sum   'Ta2 Cd2 In2 H2'
_cell_volume   134.19033374
_cell_formula_units_Z   2
loop_
 _symmetry_equiv_pos_site_id
 _symmetry_equiv_pos_as_xyz
  1  'x, y, z'
loop_
 _atom_site_type_symbol
 _atom_site_label
 _atom_site_symmetry_multiplicity
 _atom_site_fract_x
 _atom_site_fract_y
 _atom_site_fract_z
 _atom_site_occupancy
  Ta  Ta0  1  0.29284899  0.00000000  0.70010683  1
  Ta  Ta1  1  0.29284899  0.50000000  0.20010683  1
  Cd  Cd2  1  0.61255940  0.00000000  0.07743019  1
  Cd  Cd3  1  0.61255940  0.50000000  0.57743019  1
  In  In4  1  0.96282914  0.00000000  0.33963005  1
  In  In5  1  0.96282914  0.50000000  0.83963005  1
  H  H6  1  0.24254246  0.00000000  0.04209293  1
  H  H7  1  0.24254246  0.50000000  0.54209293  1
