# generated using pymatgen
data_BeNb3Ga2
_symmetry_space_group_name_H-M   'P 1'
_cell_length_a   3.64888055
_cell_length_b   9.77589256
_cell_length_c   10.58247154
_cell_angle_alpha   90.00000000
_cell_angle_beta   90.00000000
_cell_angle_gamma   90.00000000
_symmetry_Int_Tables_number   1
_chemical_formula_structural   BeNb3Ga2
_chemical_formula_sum   'Be4 Nb12 Ga8'
_cell_volume   377.48802192
_cell_formula_units_Z   4
loop_
 _symmetry_equiv_pos_site_id
 _symmetry_equiv_pos_as_xyz
  1  'x, y, z'
loop_
 _atom_site_type_symbol
 _atom_site_label
 _atom_site_symmetry_multiplicity
 _atom_site_fract_x
 _atom_site_fract_y
 _atom_site_fract_z
 _atom_site_occupancy
  Be  Be0  1  0.25000000  0.12263200  0.12862762  1
  Be  Be1  1  0.75000000  0.87736800  0.87137238  1
  Be  Be2  1  0.75000000  0.62263200  0.37137238  1
  Be  Be3  1  0.25000000  0.37736800  0.62862762  1
  Nb  Nb4  1  0.25000000  0.38749417  0.03937873  1
  Nb  Nb5  1  0.75000000  0.61250583  0.96062127  1
  Nb  Nb6  1  0.75000000  0.88749417  0.46062127  1
  Nb  Nb7  1  0.25000000  0.11250583  0.53937873  1
  Nb  Nb8  1  0.25000000  0.70936166  0.20985382  1
  Nb  Nb9  1  0.75000000  0.29063834  0.79014618  1
  Nb  Nb10  1  0.75000000  0.20936166  0.29014618  1
  Nb  Nb11  1  0.25000000  0.79063834  0.70985382  1
  Nb  Nb12  1  0.25000000  0.42773942  0.38024399  1
  Nb  Nb13  1  0.75000000  0.57226058  0.61975601  1
  Nb  Nb14  1  0.75000000  0.92773942  0.11975601  1
  Nb  Nb15  1  0.25000000  0.07226058  0.88024399  1
  Ga  Ga16  1  0.25000000  0.69139054  0.47137944  1
  Ga  Ga17  1  0.75000000  0.30860946  0.52862056  1
  Ga  Ga18  1  0.75000000  0.19139054  0.02862056  1
  Ga  Ga19  1  0.25000000  0.80860946  0.97137944  1
  Ga  Ga20  1  0.25000000  0.99182368  0.30306835  1
  Ga  Ga21  1  0.75000000  0.00817632  0.69693165  1
  Ga  Ga22  1  0.75000000  0.49182368  0.19693165  1
  Ga  Ga23  1  0.25000000  0.50817632  0.80306835  1
