# generated using pymatgen
data_SrAl3Tc
_symmetry_space_group_name_H-M   'P 1'
_cell_length_a   4.42750336
_cell_length_b   7.40750110
_cell_length_c   7.12721895
_cell_angle_alpha   90.00000000
_cell_angle_beta   89.99900482
_cell_angle_gamma   90.00000000
_symmetry_Int_Tables_number   1
_chemical_formula_structural   SrAl3Tc
_chemical_formula_sum   'Sr2 Al6 Tc2'
_cell_volume   233.74951864
_cell_formula_units_Z   2
loop_
 _symmetry_equiv_pos_site_id
 _symmetry_equiv_pos_as_xyz
  1  'x, y, z'
loop_
 _atom_site_type_symbol
 _atom_site_label
 _atom_site_symmetry_multiplicity
 _atom_site_fract_x
 _atom_site_fract_y
 _atom_site_fract_z
 _atom_site_occupancy
  Sr  Sr0  1  0.74999058  0.25000000  0.34671592  1
  Sr  Sr1  1  0.25000942  0.75000000  0.65328408  1
  Tc  Tc2  1  0.74999421  0.25000000  0.85971506  1
  Tc  Tc3  1  0.25000579  0.75000000  0.14028494  1
  Al  Al4  1  0.25001074  0.42210640  0.02290256  1
  Al  Al5  1  0.74998926  0.57789360  0.97709744  1
  Al  Al6  1  0.25001074  0.07789360  0.02290256  1
  Al  Al7  1  0.74998926  0.92210640  0.97709744  1
  Al  Al8  1  0.24999627  0.25000000  0.69194050  1
  Al  Al9  1  0.75000373  0.75000000  0.30805950  1
