# generated using pymatgen
data_PrSnO
_symmetry_space_group_name_H-M   'P 1'
_cell_length_a   4.11357970
_cell_length_b   4.11356961
_cell_length_c   8.20670089
_cell_angle_alpha   89.99420754
_cell_angle_beta   90.00494182
_cell_angle_gamma   89.99998418
_symmetry_Int_Tables_number   1
_chemical_formula_structural   PrSnO
_chemical_formula_sum   'Pr2 Sn2 O2'
_cell_volume   138.86965861
_cell_formula_units_Z   2
loop_
 _symmetry_equiv_pos_site_id
 _symmetry_equiv_pos_as_xyz
  1  'x, y, z'
loop_
 _atom_site_type_symbol
 _atom_site_label
 _atom_site_symmetry_multiplicity
 _atom_site_fract_x
 _atom_site_fract_y
 _atom_site_fract_z
 _atom_site_occupancy
  Pr  Pr0  1  0.24996842  0.75003700  0.35782589  1
  Pr  Pr1  1  0.75003158  0.24996300  0.64217411  1
  Sn  Sn2  1  0.25001440  0.74998465  0.92957713  1
  Sn  Sn3  1  0.74998560  0.25001535  0.07042287  1
  O  O4  1  0.74999697  0.74999648  0.49999888  1
  O  O5  1  0.25000303  0.25000352  0.50000112  1
