# generated using pymatgen
data_Ni2Sb2Pt
_symmetry_space_group_name_H-M   'P 1'
_cell_length_a   7.37187718
_cell_length_b   7.37187718
_cell_length_c   3.15845827
_cell_angle_alpha   90.00000000
_cell_angle_beta   90.00000000
_cell_angle_gamma   90.00000000
_symmetry_Int_Tables_number   1
_chemical_formula_structural   Ni2Sb2Pt
_chemical_formula_sum   'Ni4 Sb4 Pt2'
_cell_volume   171.64506652
_cell_formula_units_Z   2
loop_
 _symmetry_equiv_pos_site_id
 _symmetry_equiv_pos_as_xyz
  1  'x, y, z'
loop_
 _atom_site_type_symbol
 _atom_site_label
 _atom_site_symmetry_multiplicity
 _atom_site_fract_x
 _atom_site_fract_y
 _atom_site_fract_z
 _atom_site_occupancy
  Sb  Sb0  1  0.33066879  0.83066879  0.00000000  1
  Sb  Sb1  1  0.83066879  0.66933121  0.00000000  1
  Sb  Sb2  1  0.66933121  0.16933121  0.00000000  1
  Sb  Sb3  1  0.16933121  0.33066879  0.00000000  1
  Pt  Pt4  1  0.00000000  0.00000000  0.00000000  1
  Pt  Pt5  1  0.50000000  0.50000000  0.00000000  1
  Ni  Ni6  1  0.12420630  0.62420630  0.50000000  1
  Ni  Ni7  1  0.62420630  0.87579370  0.50000000  1
  Ni  Ni8  1  0.87579370  0.37579370  0.50000000  1
  Ni  Ni9  1  0.37579370  0.12420630  0.50000000  1
