# generated using pymatgen
data_Hf6TiIr5
_symmetry_space_group_name_H-M   'P 1'
_cell_length_a   4.58593507
_cell_length_b   6.73809091
_cell_length_c   8.00535624
_cell_angle_alpha   114.88798223
_cell_angle_beta   106.64406423
_cell_angle_gamma   90.00035028
_symmetry_Int_Tables_number   1
_chemical_formula_structural   Hf6TiIr5
_chemical_formula_sum   'Hf6 Ti1 Ir5'
_cell_volume   212.91684157
_cell_formula_units_Z   1
loop_
 _symmetry_equiv_pos_site_id
 _symmetry_equiv_pos_as_xyz
  1  'x, y, z'
loop_
 _atom_site_type_symbol
 _atom_site_label
 _atom_site_symmetry_multiplicity
 _atom_site_fract_x
 _atom_site_fract_y
 _atom_site_fract_z
 _atom_site_occupancy
  Ir  Ir0  1  0.34076219  0.84076320  0.68152339  1
  Ir  Ir1  1  0.67293325  0.67293325  0.34586551  1
  Ir  Ir2  1  -0.00000000  0.50000000  0.00000000  1
  Ir  Ir3  1  0.32706675  0.32706675  0.65413449  1
  Ir  Ir4  1  0.65923781  0.15923680  0.31847661  1
  Hf  Hf5  1  0.16820194  0.42158770  0.33642688  1
  Hf  Hf6  1  0.16822494  0.91483819  0.33642688  1
  Hf  Hf7  1  0.49999200  0.25620200  0.00000100  1
  Hf  Hf8  1  0.50000800  0.74379800  0.99999900  1
  Hf  Hf9  1  0.83177506  0.08516181  0.66357312  1
  Hf  Hf10  1  0.83179806  0.57841230  0.66357312  1
  Ti  Ti11  1  0.00000000  0.00000000  0.00000000  1
