# generated using pymatgen
data_SiGePt2
_symmetry_space_group_name_H-M   'P 1'
_cell_length_a   4.71598676
_cell_length_b   7.03161109
_cell_length_c   8.69741879
_cell_angle_alpha   90.00000000
_cell_angle_beta   90.00000000
_cell_angle_gamma   90.00000000
_symmetry_Int_Tables_number   1
_chemical_formula_structural   SiGePt2
_chemical_formula_sum   'Si4 Ge4 Pt8'
_cell_volume   288.41497231
_cell_formula_units_Z   4
loop_
 _symmetry_equiv_pos_site_id
 _symmetry_equiv_pos_as_xyz
  1  'x, y, z'
loop_
 _atom_site_type_symbol
 _atom_site_label
 _atom_site_symmetry_multiplicity
 _atom_site_fract_x
 _atom_site_fract_y
 _atom_site_fract_z
 _atom_site_occupancy
  Si  Si0  1  0.75000000  0.02270648  0.32004160  1
  Si  Si1  1  0.25000000  0.47729352  0.82004160  1
  Si  Si2  1  0.25000000  0.97729352  0.67995840  1
  Si  Si3  1  0.75000000  0.52270648  0.17995840  1
  Ge  Ge4  1  0.75000000  0.43928323  0.62089734  1
  Ge  Ge5  1  0.25000000  0.06071677  0.12089734  1
  Ge  Ge6  1  0.25000000  0.56071677  0.37910266  1
  Ge  Ge7  1  0.75000000  0.93928323  0.87910266  1
  Pt  Pt8  1  0.75000000  0.05642086  0.59462711  1
  Pt  Pt9  1  0.25000000  0.44357914  0.09462711  1
  Pt  Pt10  1  0.25000000  0.94357914  0.40537289  1
  Pt  Pt11  1  0.75000000  0.55642086  0.90537289  1
  Pt  Pt12  1  0.75000000  0.69897098  0.40743269  1
  Pt  Pt13  1  0.25000000  0.80102902  0.90743269  1
  Pt  Pt14  1  0.25000000  0.30102902  0.59256731  1
  Pt  Pt15  1  0.75000000  0.19897098  0.09256731  1
