# generated using pymatgen
data_LiCaTlTeSeF
_symmetry_space_group_name_H-M   'P 1'
_cell_length_a   5.95394384
_cell_length_b   4.00431285
_cell_length_c   13.86629414
_cell_angle_alpha   90.00000000
_cell_angle_beta   106.17793654
_cell_angle_gamma   90.00000000
_symmetry_Int_Tables_number   1
_chemical_formula_structural   LiCaTlTeSeF
_chemical_formula_sum   'Li2 Ca2 Tl2 Te2 Se2 F2'
_cell_volume   317.50149043
_cell_formula_units_Z   2
loop_
 _symmetry_equiv_pos_site_id
 _symmetry_equiv_pos_as_xyz
  1  'x, y, z'
loop_
 _atom_site_type_symbol
 _atom_site_label
 _atom_site_symmetry_multiplicity
 _atom_site_fract_x
 _atom_site_fract_y
 _atom_site_fract_z
 _atom_site_occupancy
  F  F0  1  0.41418847  0.00000000  0.72039498  1
  F  F1  1  0.41418847  0.50000000  0.22039498  1
  Ca  Ca2  1  0.41219863  0.00000000  0.29573447  1
  Ca  Ca3  1  0.41219863  0.50000000  0.79573447  1
  Li  Li4  1  0.68179463  0.00000000  0.67054183  1
  Li  Li5  1  0.68179463  0.50000000  0.17054183  1
  Tl  Tl6  1  0.01241936  0.00000000  0.95090053  1
  Tl  Tl7  1  0.01241936  0.50000000  0.45090053  1
  Te  Te8  1  0.54243843  0.00000000  0.99760100  1
  Te  Te9  1  0.54243843  0.50000000  0.49760100  1
  Se  Se10  1  0.91454047  0.00000000  0.28841718  1
  Se  Se11  1  0.91454047  0.50000000  0.78841718  1
