# generated using pymatgen
data_Nd4PCSe2
_symmetry_space_group_name_H-M   'P 1'
_cell_length_a   4.05598584
_cell_length_b   7.08102042
_cell_length_c   7.26099615
_cell_angle_alpha   108.69350760
_cell_angle_beta   90.00000000
_cell_angle_gamma   90.00000000
_symmetry_Int_Tables_number   1
_chemical_formula_structural   Nd4PCSe2
_chemical_formula_sum   'Nd4 P1 C1 Se2'
_cell_volume   197.53840337
_cell_formula_units_Z   1
loop_
 _symmetry_equiv_pos_site_id
 _symmetry_equiv_pos_as_xyz
  1  'x, y, z'
loop_
 _atom_site_type_symbol
 _atom_site_label
 _atom_site_symmetry_multiplicity
 _atom_site_fract_x
 _atom_site_fract_y
 _atom_site_fract_z
 _atom_site_occupancy
  Nd  Nd0  1  0.50000000  0.25872884  0.22225226  1
  Nd  Nd1  1  0.50000000  0.74127116  0.77774774  1
  Nd  Nd2  1  0.00000000  0.27659608  0.78511596  1
  Nd  Nd3  1  0.00000000  0.72340392  0.21488404  1
  P  P4  1  0.00000000  0.00000000  0.00000000  1
  C  C5  1  0.50000000  0.50000000  0.00000000  1
  Se  Se6  1  0.50000000  0.00000000  0.50000000  1
  Se  Se7  1  0.00000000  0.50000000  0.50000000  1
