# generated using pymatgen
data_V3(WO6)2
_symmetry_space_group_name_H-M   'P 1'
_cell_length_a   9.36265407
_cell_length_b   9.36066708
_cell_length_c   13.29422541
_cell_angle_alpha   90.00000000
_cell_angle_beta   88.97926889
_cell_angle_gamma   90.00000000
_symmetry_Int_Tables_number   1
_chemical_formula_structural   V3(WO6)2
_chemical_formula_sum   'V12 W8 O48'
_cell_volume   1164.93017122
_cell_formula_units_Z   4
loop_
 _symmetry_equiv_pos_site_id
 _symmetry_equiv_pos_as_xyz
  1  'x, y, z'
loop_
 _atom_site_type_symbol
 _atom_site_label
 _atom_site_symmetry_multiplicity
 _atom_site_fract_x
 _atom_site_fract_y
 _atom_site_fract_z
 _atom_site_occupancy
  V  V0  1  0.02695560  0.75062221  0.50213118  1
  V  V1  1  0.10817994  0.60970805  0.14531705  1
  V  V2  1  0.11617634  0.89776102  0.85731253  1
  V  V3  1  0.39182006  0.10970805  0.35468295  1
  V  V4  1  0.38382366  0.39776102  0.64268747  1
  V  V5  1  0.47304440  0.25062221  0.99786882  1
  V  V6  1  0.52695560  0.74937779  0.00213118  1
  V  V7  1  0.61617634  0.60223898  0.35731253  1
  V  V8  1  0.60817994  0.89029195  0.64531705  1
  V  V9  1  0.88382366  0.10223898  0.14268747  1
  V  V10  1  0.89182006  0.39029195  0.85468295  1
  V  V11  1  0.97304440  0.24937779  0.49786882  1
  W  W12  1  0.24150117  0.97224221  0.11876917  1
  W  W13  1  0.25849883  0.47224221  0.38123083  1
  W  W14  1  0.25181572  0.03358276  0.61414959  1
  W  W15  1  0.24818428  0.53358276  0.88585041  1
  W  W16  1  0.75181572  0.46641724  0.11414959  1
  W  W17  1  0.74818428  0.96641724  0.38585041  1
  W  W18  1  0.74150117  0.52775779  0.61876917  1
  W  W19  1  0.75849883  0.02775779  0.88123083  1
  O  O20  1  0.07091283  0.15051364  0.58217046  1
  O  O21  1  0.08147899  0.09461431  0.13370522  1
  O  O22  1  0.08890303  0.34434762  0.41858158  1
  O  O23  1  0.09118061  0.42060051  0.85519658  1
  O  O24  1  0.13598608  0.63267982  0.43505680  1
  O  O25  1  0.14285856  0.80753233  0.15647980  1
  O  O26  1  0.19058826  0.55686028  0.02109270  1
  O  O27  1  0.16724804  0.99875821  0.74876028  1
  O  O28  1  0.16473961  0.70723701  0.84282479  1
  O  O29  1  0.13409362  0.86379862  0.57257483  1
  O  O30  1  0.18735505  0.50926943  0.25400749  1
  O  O31  1  0.31264495  0.00926943  0.24599251  1
  O  O32  1  0.18743771  0.94715016  0.97334279  1
  O  O33  1  0.31256229  0.44715016  0.52665721  1
  O  O34  1  0.36590638  0.36379862  0.92742517  1
  O  O35  1  0.33526039  0.20723701  0.65717521  1
  O  O36  1  0.30941174  0.05686028  0.47890730  1
  O  O37  1  0.33275196  0.49875821  0.75123972  1
  O  O38  1  0.35714144  0.30753233  0.34352020  1
  O  O39  1  0.36401392  0.13267982  0.06494320  1
  O  O40  1  0.41109697  0.84434762  0.08141842  1
  O  O41  1  0.41852101  0.59461431  0.36629478  1
  O  O42  1  0.40881939  0.92060051  0.64480342  1
  O  O43  1  0.42908717  0.65051364  0.91782954  1
  O  O44  1  0.57091283  0.34948636  0.08217046  1
  O  O45  1  0.59118061  0.07939949  0.35519658  1
  O  O46  1  0.58147899  0.40538569  0.63370522  1
  O  O47  1  0.58890303  0.15565238  0.91858158  1
  O  O48  1  0.63598608  0.86732018  0.93505680  1
  O  O49  1  0.64285856  0.69246767  0.65647980  1
  O  O50  1  0.66724804  0.50124179  0.24876028  1
  O  O51  1  0.69058826  0.94313972  0.52109270  1
  O  O52  1  0.66473961  0.79276299  0.34282479  1
  O  O53  1  0.63409362  0.63620138  0.07257483  1
  O  O54  1  0.68743771  0.55284984  0.47334279  1
  O  O55  1  0.81256229  0.05284984  0.02665721  1
  O  O56  1  0.68735505  0.99073057  0.75400749  1
  O  O57  1  0.81264495  0.49073057  0.74599251  1
  O  O58  1  0.86590638  0.13620138  0.42742517  1
  O  O59  1  0.83526039  0.29276299  0.15717521  1
  O  O60  1  0.83275196  0.00124179  0.25123972  1
  O  O61  1  0.80941174  0.44313972  0.97890730  1
  O  O62  1  0.85714144  0.19246767  0.84352020  1
  O  O63  1  0.86401392  0.36732018  0.56494320  1
  O  O64  1  0.90881939  0.57939949  0.14480342  1
  O  O65  1  0.91109697  0.65565238  0.58141842  1
  O  O66  1  0.91852101  0.90538569  0.86629478  1
  O  O67  1  0.92908717  0.84948636  0.41782954  1
