# generated using pymatgen
data_Ce3(AlCu2)2
_symmetry_space_group_name_H-M   'P 1'
_cell_length_a   4.42107583
_cell_length_b   5.77573333
_cell_length_c   8.31101388
_cell_angle_alpha   113.09217733
_cell_angle_beta   90.00000000
_cell_angle_gamma   112.50279666
_symmetry_Int_Tables_number   1
_chemical_formula_structural   Ce3(AlCu2)2
_chemical_formula_sum   'Ce3 Al2 Cu4'
_cell_volume   177.51768470
_cell_formula_units_Z   1
loop_
 _symmetry_equiv_pos_site_id
 _symmetry_equiv_pos_as_xyz
  1  'x, y, z'
loop_
 _atom_site_type_symbol
 _atom_site_label
 _atom_site_symmetry_multiplicity
 _atom_site_fract_x
 _atom_site_fract_y
 _atom_site_fract_z
 _atom_site_occupancy
  Ce  Ce0  1  0.63016261  0.26032521  0.67252384  1
  Ce  Ce1  1  0.00000000  0.00000000  0.00000000  1
  Ce  Ce2  1  0.36983739  0.73967479  0.32747616  1
  Al  Al3  1  0.65775535  0.31550970  0.31653781  1
  Al  Al4  1  0.34224465  0.68449030  0.68346219  1
  Cu  Cu5  1  0.72588857  0.45177714  0.06033135  1
  Cu  Cu6  1  0.27411143  0.54822286  0.93966865  1
  Cu  Cu7  1  0.91112343  0.82224686  0.58642533  1
  Cu  Cu8  1  0.08887657  0.17775314  0.41357467  1
