# generated using pymatgen
data_K3Np2FeO9
_symmetry_space_group_name_H-M   'P 1'
_cell_length_a   5.87820407
_cell_length_b   5.87820408
_cell_length_c   7.22330615
_cell_angle_alpha   90.00000000
_cell_angle_beta   90.00000000
_cell_angle_gamma   120.00000001
_symmetry_Int_Tables_number   1
_chemical_formula_structural   K3Np2FeO9
_chemical_formula_sum   'K3 Np2 Fe1 O9'
_cell_volume   216.15036477
_cell_formula_units_Z   1
loop_
 _symmetry_equiv_pos_site_id
 _symmetry_equiv_pos_as_xyz
  1  'x, y, z'
loop_
 _atom_site_type_symbol
 _atom_site_label
 _atom_site_symmetry_multiplicity
 _atom_site_fract_x
 _atom_site_fract_y
 _atom_site_fract_z
 _atom_site_occupancy
  K  K0  1  0.33333333  0.66666667  0.66131224  1
  K  K1  1  0.00000000  0.00000000  0.00000000  1
  K  K2  1  0.66666667  0.33333333  0.33868776  1
  Np  Np3  1  0.33333333  0.66666667  0.17924698  1
  Np  Np4  1  0.66666667  0.33333333  0.82075302  1
  Fe  Fe5  1  0.00000000  0.00000000  0.50000000  1
  O  O6  1  0.83330594  0.16669406  0.66506458  1
  O  O7  1  0.83330594  0.66661188  0.66506458  1
  O  O8  1  0.33338812  0.16669406  0.66506458  1
  O  O9  1  0.66661188  0.83330594  0.33493542  1
  O  O10  1  0.16669406  0.33338812  0.33493542  1
  O  O11  1  0.16669406  0.83330594  0.33493542  1
  O  O12  1  0.50000000  0.00000000  0.00000000  1
  O  O13  1  0.00000000  0.50000000  0.00000000  1
  O  O14  1  0.50000000  0.50000000  0.00000000  1
