# generated using pymatgen
data_Ho4AlCd2In
_symmetry_space_group_name_H-M   'P 1'
_cell_length_a   5.22292985
_cell_length_b   5.22292985
_cell_length_c   9.06058155
_cell_angle_alpha   73.24842084
_cell_angle_beta   73.24842082
_cell_angle_gamma   59.99999994
_symmetry_Int_Tables_number   1
_chemical_formula_structural   Ho4AlCd2In
_chemical_formula_sum   'Ho4 Al1 Cd2 In1'
_cell_volume   201.84771446
_cell_formula_units_Z   1
loop_
 _symmetry_equiv_pos_site_id
 _symmetry_equiv_pos_as_xyz
  1  'x, y, z'
loop_
 _atom_site_type_symbol
 _atom_site_label
 _atom_site_symmetry_multiplicity
 _atom_site_fract_x
 _atom_site_fract_y
 _atom_site_fract_z
 _atom_site_occupancy
  Ho  Ho0  1  0.37759849  0.37759849  0.86720453  1
  Ho  Ho1  1  0.87254671  0.87254671  0.38235988  1
  Ho  Ho2  1  0.12745329  0.12745329  0.61764012  1
  Ho  Ho3  1  0.62240151  0.62240151  0.13279547  1
  Al  Al4  1  0.50000000  0.50000000  0.50000000  1
  Cd  Cd5  1  0.74983260  0.74983260  0.75050221  1
  Cd  Cd6  1  0.25016740  0.25016740  0.24949779  1
  In  In7  1  0.00000000  0.00000000  0.00000000  1
