# generated using pymatgen
data_Y6TlZn
_symmetry_space_group_name_H-M   'P 1'
_cell_length_a   5.10501727
_cell_length_b   5.10501452
_cell_length_c   9.67927827
_cell_angle_alpha   74.70966376
_cell_angle_beta   74.71150064
_cell_angle_gamma   90.00007381
_symmetry_Int_Tables_number   1
_chemical_formula_structural   Y6TlZn
_chemical_formula_sum   'Y6 Tl1 Zn1'
_cell_volume   234.05668430
_cell_formula_units_Z   1
loop_
 _symmetry_equiv_pos_site_id
 _symmetry_equiv_pos_as_xyz
  1  'x, y, z'
loop_
 _atom_site_type_symbol
 _atom_site_label
 _atom_site_symmetry_multiplicity
 _atom_site_fract_x
 _atom_site_fract_y
 _atom_site_fract_z
 _atom_site_occupancy
  Y  Y0  1  0.74947880  0.74943080  0.50112540  1
  Y  Y1  1  0.60896592  0.10897992  0.78204616  1
  Y  Y2  1  0.10901792  0.60897992  0.78204616  1
  Y  Y3  1  0.39103408  0.89102008  0.21795384  1
  Y  Y4  1  0.25052120  0.25056920  0.49887460  1
  Y  Y5  1  0.89098208  0.39102008  0.21795384  1
  Tl  Tl6  1  0.00000000  0.00000000  0.00000000  1
  Zn  Zn7  1  0.50000000  0.50000000  0.00000000  1
