# generated using pymatgen
data_Ho2Zr(TeN)2
_symmetry_space_group_name_H-M   'P 1'
_cell_length_a   4.23350163
_cell_length_b   4.23350163
_cell_length_c   8.86480682
_cell_angle_alpha   103.81462761
_cell_angle_beta   103.81462761
_cell_angle_gamma   90.00000000
_symmetry_Int_Tables_number   1
_chemical_formula_structural   Ho2Zr(TeN)2
_chemical_formula_sum   'Ho2 Zr1 Te2 N2'
_cell_volume   149.54692532
_cell_formula_units_Z   1
loop_
 _symmetry_equiv_pos_site_id
 _symmetry_equiv_pos_as_xyz
  1  'x, y, z'
loop_
 _atom_site_type_symbol
 _atom_site_label
 _atom_site_symmetry_multiplicity
 _atom_site_fract_x
 _atom_site_fract_y
 _atom_site_fract_z
 _atom_site_occupancy
  Ho  Ho0  1  0.40314285  0.40314385  0.80628671  1
  Ho  Ho1  1  0.59685715  0.59685615  0.19371329  1
  Zr  Zr2  1  0.00000000  0.00000000  0.00000000  1
  Te  Te3  1  0.17825171  0.17825171  0.35650341  1
  Te  Te4  1  0.82174829  0.82174829  0.64349659  1
  N  N5  1  0.00000000  0.50000000  0.00000000  1
  N  N6  1  0.50000000  0.00000000  0.00000000  1
