# generated using pymatgen
data_B2H8F
_symmetry_space_group_name_H-M   'P 1'
_cell_length_a   3.94497491
_cell_length_b   5.17671462
_cell_length_c   8.00424639
_cell_angle_alpha   138.90843381
_cell_angle_beta   104.26635457
_cell_angle_gamma   90.00001048
_symmetry_Int_Tables_number   1
_chemical_formula_structural   B2H8F
_chemical_formula_sum   'B2 H8 F1'
_cell_volume   99.60084563
_cell_formula_units_Z   1
loop_
 _symmetry_equiv_pos_site_id
 _symmetry_equiv_pos_as_xyz
  1  'x, y, z'
loop_
 _atom_site_type_symbol
 _atom_site_label
 _atom_site_symmetry_multiplicity
 _atom_site_fract_x
 _atom_site_fract_y
 _atom_site_fract_z
 _atom_site_occupancy
  B  B0  1  0.24831371  0.80897376  0.49662742  1
  B  B1  1  0.75168629  0.19102724  0.50337258  1
  H  H2  1  0.08001007  0.33507079  0.63150711  1
  H  H3  1  0.44850395  0.66492821  0.36849289  1
  H  H4  1  0.10627324  0.35672129  0.21254649  1
  H  H5  1  0.89372476  0.64327071  0.78744951  1
  H  H6  1  0.55149605  0.33507079  0.63150711  1
  H  H7  1  0.91998893  0.66492821  0.36849289  1
  H  H8  1  0.36221014  0.99266232  0.72442128  1
  H  H9  1  0.63778986  0.00733768  0.27557872  1
  F  F10  1  0.00000300  0.00000800  0.00000500  1
