# generated using pymatgen
data_MnAl
_symmetry_space_group_name_H-M   'P 1'
_cell_length_a   4.14891015
_cell_length_b   2.90285931
_cell_length_c   9.69818441
_cell_angle_alpha   116.68024312
_cell_angle_beta   102.29306650
_cell_angle_gamma   89.99936164
_symmetry_Int_Tables_number   1
_chemical_formula_structural   MnAl
_chemical_formula_sum   'Mn4 Al4'
_cell_volume   101.35966603
_cell_formula_units_Z   4
loop_
 _symmetry_equiv_pos_site_id
 _symmetry_equiv_pos_as_xyz
  1  'x, y, z'
loop_
 _atom_site_type_symbol
 _atom_site_label
 _atom_site_symmetry_multiplicity
 _atom_site_fract_x
 _atom_site_fract_y
 _atom_site_fract_z
 _atom_site_occupancy
  Mn  Mn0  1  0.30919199  0.66769639  0.11186369  1
  Mn  Mn1  1  0.05280918  0.91491323  0.60992133  1
  Mn  Mn2  1  0.69080801  0.33230361  0.88813631  1
  Mn  Mn3  1  0.94719082  0.08508677  0.39007867  1
  Al  Al4  1  0.43407181  0.54541896  0.36363914  1
  Al  Al5  1  0.17686452  0.79049114  0.86030209  1
  Al  Al6  1  0.56592819  0.45458104  0.63636086  1
  Al  Al7  1  0.82313548  0.20950886  0.13969791  1
