# generated using pymatgen
data_Sr2Ga3Ag12Au
_symmetry_space_group_name_H-M   'P 1'
_cell_length_a   8.19275544
_cell_length_b   8.19275544
_cell_length_c   8.19275544
_cell_angle_alpha   67.89354767
_cell_angle_beta   67.89354767
_cell_angle_gamma   67.89354768
_symmetry_Int_Tables_number   1
_chemical_formula_structural   Sr2Ga3Ag12Au
_chemical_formula_sum   'Sr2 Ga3 Ag12 Au1'
_cell_volume   454.04018480
_cell_formula_units_Z   1
loop_
 _symmetry_equiv_pos_site_id
 _symmetry_equiv_pos_as_xyz
  1  'x, y, z'
loop_
 _atom_site_type_symbol
 _atom_site_label
 _atom_site_symmetry_multiplicity
 _atom_site_fract_x
 _atom_site_fract_y
 _atom_site_fract_z
 _atom_site_occupancy
  Sr  Sr0  1  0.60428621  0.60428621  0.60428621  1
  Sr  Sr1  1  0.39571379  0.39571379  0.39571379  1
  Ga  Ga2  1  0.50000000  0.00000000  0.00000000  1
  Ga  Ga3  1  -0.00000000  0.50000000  -0.00000000  1
  Ga  Ga4  1  -0.00000000  -0.00000000  0.50000000  1
  Ag  Ag5  1  0.35482435  0.35482435  0.97724947  1
  Ag  Ag6  1  0.85918441  0.85918441  0.36050877  1
  Ag  Ag7  1  0.36050877  0.85918441  0.85918441  1
  Ag  Ag8  1  0.97724947  0.35482435  0.35482435  1
  Ag  Ag9  1  0.85918441  0.36050877  0.85918441  1
  Ag  Ag10  1  0.35482435  0.97724947  0.35482435  1
  Ag  Ag11  1  0.64517565  0.64517565  0.02275053  1
  Ag  Ag12  1  0.14081559  0.14081559  0.63949123  1
  Ag  Ag13  1  0.63949123  0.14081559  0.14081559  1
  Ag  Ag14  1  0.02275053  0.64517565  0.64517565  1
  Ag  Ag15  1  0.14081559  0.63949123  0.14081559  1
  Ag  Ag16  1  0.64517565  0.02275053  0.64517565  1
  Au  Au17  1  0.00000000  0.00000000  0.00000000  1
