# generated using pymatgen
data_DyErGaPd
_symmetry_space_group_name_H-M   'P 1'
_cell_length_a   3.70996938
_cell_length_b   4.48325341
_cell_length_c   5.78479029
_cell_angle_alpha   90.00000000
_cell_angle_beta   108.70319738
_cell_angle_gamma   90.00000000
_symmetry_Int_Tables_number   1
_chemical_formula_structural   DyErGaPd
_chemical_formula_sum   'Dy1 Er1 Ga1 Pd1'
_cell_volume   91.13588809
_cell_formula_units_Z   1
loop_
 _symmetry_equiv_pos_site_id
 _symmetry_equiv_pos_as_xyz
  1  'x, y, z'
loop_
 _atom_site_type_symbol
 _atom_site_label
 _atom_site_symmetry_multiplicity
 _atom_site_fract_x
 _atom_site_fract_y
 _atom_site_fract_z
 _atom_site_occupancy
  Dy  Dy0  1  0.14376790  0.00000000  0.28753580  1
  Er  Er1  1  0.85955189  0.50000000  0.71910377  1
  Ga  Ga2  1  0.42143355  0.00000000  0.84286710  1
  Pd  Pd3  1  0.57524766  0.50000000  0.15049533  1
