# generated using pymatgen
data_Mn3ZnO4
_symmetry_space_group_name_H-M   'P 1'
_cell_length_a   3.16517974
_cell_length_b   5.47519521
_cell_length_c   5.47519521
_cell_angle_alpha   109.59954709
_cell_angle_beta   90.00000000
_cell_angle_gamma   90.00000000
_symmetry_Int_Tables_number   1
_chemical_formula_structural   Mn3ZnO4
_chemical_formula_sum   'Mn3 Zn1 O4'
_cell_volume   89.38737941
_cell_formula_units_Z   1
loop_
 _symmetry_equiv_pos_site_id
 _symmetry_equiv_pos_as_xyz
  1  'x, y, z'
loop_
 _atom_site_type_symbol
 _atom_site_label
 _atom_site_symmetry_multiplicity
 _atom_site_fract_x
 _atom_site_fract_y
 _atom_site_fract_z
 _atom_site_occupancy
  Zn  Zn0  1  0.00000000  0.00000000  0.00000000  1
  Mn  Mn1  1  0.00000000  0.50000000  0.50000000  1
  Mn  Mn2  1  0.50000000  -0.00000000  0.50000000  1
  Mn  Mn3  1  0.50000000  0.50000000  0.00000000  1
  O  O4  1  0.00000000  0.24852599  0.75147401  1
  O  O5  1  0.50000000  0.75497861  0.75497861  1
  O  O6  1  0.50000000  0.24502139  0.24502139  1
  O  O7  1  0.00000000  0.75147401  0.24852599  1
