# generated using pymatgen
data_CaCuSi2Pd5
_symmetry_space_group_name_H-M   'P 1'
_cell_length_a   4.65562999
_cell_length_b   4.65562999
_cell_length_c   7.04615628
_cell_angle_alpha   90.00000000
_cell_angle_beta   90.00000000
_cell_angle_gamma   90.00000000
_symmetry_Int_Tables_number   1
_chemical_formula_structural   CaCuSi2Pd5
_chemical_formula_sum   'Ca1 Cu1 Si2 Pd5'
_cell_volume   152.72466655
_cell_formula_units_Z   1
loop_
 _symmetry_equiv_pos_site_id
 _symmetry_equiv_pos_as_xyz
  1  'x, y, z'
loop_
 _atom_site_type_symbol
 _atom_site_label
 _atom_site_symmetry_multiplicity
 _atom_site_fract_x
 _atom_site_fract_y
 _atom_site_fract_z
 _atom_site_occupancy
  Ca  Ca0  1  0.00000000  0.00000000  0.50000000  1
  Cu  Cu1  1  0.00000000  0.00000000  0.00000000  1
  Si  Si2  1  0.50000000  0.50000000  0.15988259  1
  Si  Si3  1  0.50000000  0.50000000  0.84011741  1
  Pd  Pd4  1  0.00000000  0.50000000  0.21897215  1
  Pd  Pd5  1  0.50000000  0.00000000  0.21897215  1
  Pd  Pd6  1  0.00000000  0.50000000  0.78102785  1
  Pd  Pd7  1  0.50000000  0.00000000  0.78102785  1
  Pd  Pd8  1  0.50000000  0.50000000  0.50000000  1
