# generated using pymatgen
data_PmCu2PtO8
_symmetry_space_group_name_H-M   'P 1'
_cell_length_a   5.87057770
_cell_length_b   5.87057769
_cell_length_c   5.87057770
_cell_angle_alpha   107.78299106
_cell_angle_beta   107.78299106
_cell_angle_gamma   112.90315781
_symmetry_Int_Tables_number   1
_chemical_formula_structural   PmCu2PtO8
_chemical_formula_sum   'Pm1 Cu2 Pt1 O8'
_cell_volume   155.32554844
_cell_formula_units_Z   1
loop_
 _symmetry_equiv_pos_site_id
 _symmetry_equiv_pos_as_xyz
  1  'x, y, z'
loop_
 _atom_site_type_symbol
 _atom_site_label
 _atom_site_symmetry_multiplicity
 _atom_site_fract_x
 _atom_site_fract_y
 _atom_site_fract_z
 _atom_site_occupancy
  Pm  Pm0  1  0.00000000  0.00000000  0.00000000  1
  Cu  Cu1  1  0.75000000  0.25000000  0.50000000  1
  Cu  Cu2  1  0.50000000  0.50000000  0.00000000  1
  Pt  Pt3  1  0.25000000  0.75000000  0.50000000  1
  O  O4  1  0.36310988  0.02251889  0.34059100  1
  O  O5  1  0.30164935  0.50054138  0.19889203  1
  O  O6  1  0.30164935  0.10275733  0.80110797  1
  O  O7  1  0.68192789  0.02251889  0.65940900  1
  O  O8  1  0.89724267  0.69835065  0.19889203  1
  O  O9  1  0.97748111  0.31807211  0.34059100  1
  O  O10  1  0.97748111  0.63689012  0.65940900  1
  O  O11  1  0.49945862  0.69835065  0.80110797  1
