# generated using pymatgen
data_CsFe(PS4)2
_symmetry_space_group_name_H-M   'P 1'
_cell_length_a   5.81405362
_cell_length_b   5.81405361
_cell_length_c   10.35861701
_cell_angle_alpha   90.00000000
_cell_angle_beta   90.00000000
_cell_angle_gamma   120.00000008
_symmetry_Int_Tables_number   1
_chemical_formula_structural   CsFe(PS4)2
_chemical_formula_sum   'Cs1 Fe1 P2 S8'
_cell_volume   303.24278218
_cell_formula_units_Z   1
loop_
 _symmetry_equiv_pos_site_id
 _symmetry_equiv_pos_as_xyz
  1  'x, y, z'
loop_
 _atom_site_type_symbol
 _atom_site_label
 _atom_site_symmetry_multiplicity
 _atom_site_fract_x
 _atom_site_fract_y
 _atom_site_fract_z
 _atom_site_occupancy
  Cs  Cs0  1  0.00000000  0.00000000  0.00000000  1
  Fe  Fe1  1  0.00000000  0.00000000  0.50000000  1
  P  P2  1  0.66666667  0.33333333  0.31437276  1
  P  P3  1  0.33333333  0.66666667  0.68562724  1
  S  S4  1  0.33333333  0.66666667  0.87811171  1
  S  S5  1  0.31363087  0.32368069  0.36976102  1
  S  S6  1  0.67631931  0.98995018  0.36976102  1
  S  S7  1  0.66666667  0.33333333  0.12188829  1
  S  S8  1  0.32368069  0.01004982  0.63023898  1
  S  S9  1  0.68636913  0.67631931  0.63023898  1
  S  S10  1  0.98995018  0.31363087  0.63023898  1
  S  S11  1  0.01004982  0.68636913  0.36976102  1
