# generated using pymatgen
data_SrNd3Se4
_symmetry_space_group_name_H-M   'P 1'
_cell_length_a   4.28900484
_cell_length_b   6.01147747
_cell_length_c   8.59044029
_cell_angle_alpha   90.00000000
_cell_angle_beta   90.00000000
_cell_angle_gamma   90.00000000
_symmetry_Int_Tables_number   1
_chemical_formula_structural   SrNd3Se4
_chemical_formula_sum   'Sr1 Nd3 Se4'
_cell_volume   221.48952084
_cell_formula_units_Z   1
loop_
 _symmetry_equiv_pos_site_id
 _symmetry_equiv_pos_as_xyz
  1  'x, y, z'
loop_
 _atom_site_type_symbol
 _atom_site_label
 _atom_site_symmetry_multiplicity
 _atom_site_fract_x
 _atom_site_fract_y
 _atom_site_fract_z
 _atom_site_occupancy
  Sr  Sr0  1  0.00000000  0.00000000  0.00000000  1
  Nd  Nd1  1  0.50000000  0.50000000  0.26479128  1
  Nd  Nd2  1  0.00000000  0.00000000  0.50000000  1
  Nd  Nd3  1  0.50000000  0.50000000  0.73520872  1
  Se  Se4  1  0.00000000  0.50000000  0.50000000  1
  Se  Se5  1  0.50000000  0.00000000  0.74635727  1
  Se  Se6  1  0.00000000  0.50000000  0.00000000  1
  Se  Se7  1  0.50000000  0.00000000  0.25364273  1
