# generated using pymatgen
data_Tb6NdHo3Th2
_symmetry_space_group_name_H-M   'P 1'
_cell_length_a   6.18448086
_cell_length_b   6.18448086
_cell_length_c   11.79438572
_cell_angle_alpha   95.01911972
_cell_angle_beta   95.01911974
_cell_angle_gamma   119.93711014
_symmetry_Int_Tables_number   1
_chemical_formula_structural   Tb6NdHo3Th2
_chemical_formula_sum   'Tb6 Nd1 Ho3 Th2'
_cell_volume   384.90017705
_cell_formula_units_Z   1
loop_
 _symmetry_equiv_pos_site_id
 _symmetry_equiv_pos_as_xyz
  1  'x, y, z'
loop_
 _atom_site_type_symbol
 _atom_site_label
 _atom_site_symmetry_multiplicity
 _atom_site_fract_x
 _atom_site_fract_y
 _atom_site_fract_z
 _atom_site_occupancy
  Tb  Tb0  1  0.91619557  0.57831915  0.75061341  1
  Tb  Tb1  1  0.74571875  0.74571875  0.24939090  1
  Tb  Tb2  1  0.08380443  0.42168085  0.24938659  1
  Tb  Tb3  1  0.57831915  0.91619557  0.75061341  1
  Tb  Tb4  1  0.25428125  0.25428125  0.75060910  1
  Tb  Tb5  1  0.42168085  0.08380443  0.24938659  1
  Nd  Nd6  1  0.00000000  0.00000000  0.00000000  1
  Ho  Ho7  1  0.16637330  0.83362670  0.50000000  1
  Ho  Ho8  1  0.83362670  0.16637330  0.50000000  1
  Ho  Ho9  1  0.50000000  0.50000000  0.50000000  1
  Th  Th10  1  0.33326201  0.66673799  0.00000000  1
  Th  Th11  1  0.66673799  0.33326201  0.00000000  1
