# generated using pymatgen
data_YbH3
_symmetry_space_group_name_H-M   'P 1'
_cell_length_a   6.14326928
_cell_length_b   6.14326928
_cell_length_c   17.46313763
_cell_angle_alpha   90.00000000
_cell_angle_beta   90.00000000
_cell_angle_gamma   119.99999999
_symmetry_Int_Tables_number   1
_chemical_formula_structural   YbH3
_chemical_formula_sum   'Yb3 H9'
_cell_volume   570.75800752
_cell_formula_units_Z   3
loop_
 _symmetry_equiv_pos_site_id
 _symmetry_equiv_pos_as_xyz
  1  'x, y, z'
loop_
 _atom_site_type_symbol
 _atom_site_label
 _atom_site_symmetry_multiplicity
 _atom_site_fract_x
 _atom_site_fract_y
 _atom_site_fract_z
 _atom_site_occupancy
  H  H0  1  0.08868026  0.66020316  0.55223714  1
  H  H1  1  0.33979682  0.42847708  0.55223715  1
  H  H2  1  0.57152289  0.91131972  0.55223715  1
  H  H3  1  0.66020317  0.08868027  0.55223714  1
  H  H4  1  0.42847709  0.33979684  0.55223715  1
  H  H5  1  0.91131974  0.57152292  0.55223714  1
  H  H6  1  0.33333333  0.66666667  0.41118932  1
  H  H7  1  0.66666667  0.33333333  0.41118932  1
  H  H8  1  0.00000000  0.00000000  0.44940997  1
  Yb  Yb9  1  0.35706461  0.00000000  0.47159618  1
  Yb  Yb10  1  0.00000000  0.35706462  0.47159618  1
  Yb  Yb11  1  0.64293538  0.64293538  0.47159618  1
