# generated using pymatgen
data_V4Ga5N
_symmetry_space_group_name_H-M   'P 1'
_cell_length_a   2.84148081
_cell_length_b   7.18666662
_cell_length_c   7.19384092
_cell_angle_alpha   97.38907565
_cell_angle_beta   101.39045302
_cell_angle_gamma   90.00000000
_symmetry_Int_Tables_number   1
_chemical_formula_structural   V4Ga5N
_chemical_formula_sum   'V4 Ga5 N1'
_cell_volume   142.76575046
_cell_formula_units_Z   1
loop_
 _symmetry_equiv_pos_site_id
 _symmetry_equiv_pos_as_xyz
  1  'x, y, z'
loop_
 _atom_site_type_symbol
 _atom_site_label
 _atom_site_symmetry_multiplicity
 _atom_site_fract_x
 _atom_site_fract_y
 _atom_site_fract_z
 _atom_site_occupancy
  V  V0  1  0.65002438  0.03705634  0.30004877  1
  V  V1  1  0.99763134  0.18669208  0.99526269  1
  V  V2  1  0.34997562  0.96294366  0.69995123  1
  V  V3  1  0.00236866  0.81330792  0.00473731  1
  Ga  Ga4  1  0.16987685  0.36508549  0.33975470  1
  Ga  Ga5  1  0.17986559  0.74023991  0.35973118  1
  Ga  Ga6  1  0.82013441  0.25976009  0.64026882  1
  Ga  Ga7  1  0.50000000  0.50000000  0.00000000  1
  Ga  Ga8  1  0.83012315  0.63491451  0.66024530  1
  N  N9  1  0.50000000  0.00000000  0.00000000  1
