# generated using pymatgen
data_Ti5(AgPd6)2
_symmetry_space_group_name_H-M   'P 1'
_cell_length_a   5.40314236
_cell_length_b   7.93788011
_cell_length_c   8.55780998
_cell_angle_alpha   105.85892808
_cell_angle_beta   90.00000000
_cell_angle_gamma   109.89753680
_symmetry_Int_Tables_number   1
_chemical_formula_structural   Ti5(AgPd6)2
_chemical_formula_sum   'Ti5 Ag2 Pd12'
_cell_volume   330.23273030
_cell_formula_units_Z   1
loop_
 _symmetry_equiv_pos_site_id
 _symmetry_equiv_pos_as_xyz
  1  'x, y, z'
loop_
 _atom_site_type_symbol
 _atom_site_label
 _atom_site_symmetry_multiplicity
 _atom_site_fract_x
 _atom_site_fract_y
 _atom_site_fract_z
 _atom_site_occupancy
  Ti  Ti0  1  0.30648195  0.61296390  0.62619622  1
  Ti  Ti1  1  0.36308947  0.72617893  0.13259100  1
  Ti  Ti2  1  0.00000000  0.00000000  0.50000000  1
  Ti  Ti3  1  0.63691053  0.27382107  0.86740900  1
  Ti  Ti4  1  0.69351805  0.38703610  0.37380378  1
  Ag  Ag5  1  0.75113759  1.00000000  1.00000000  1
  Ag  Ag6  1  0.24886241  0.00000000  0.00000000  1
  Pd  Pd7  1  0.11447046  0.22894092  0.31524153  1
  Pd  Pd8  1  0.04433245  0.60289595  0.88662819  1
  Pd  Pd9  1  0.55856350  0.60289595  0.88662819  1
  Pd  Pd10  1  0.09846138  0.69331513  0.38748180  1
  Pd  Pd11  1  0.59485375  0.69331513  0.38748180  1
  Pd  Pd12  1  0.48429560  0.96859120  0.65327987  1
  Pd  Pd13  1  0.51570440  0.03140880  0.34672013  1
  Pd  Pd14  1  0.90153862  0.30668487  0.61251820  1
  Pd  Pd15  1  0.40514625  0.30668487  0.61251820  1
  Pd  Pd16  1  0.95566755  0.39710405  0.11337181  1
  Pd  Pd17  1  0.44143650  0.39710405  0.11337181  1
  Pd  Pd18  1  0.88552954  0.77105908  0.68475847  1
