# generated using pymatgen
data_MnFeB2
_symmetry_space_group_name_H-M   'P 1'
_cell_length_a   5.35979845
_cell_length_b   5.35979845
_cell_length_c   4.53352089
_cell_angle_alpha   53.76277794
_cell_angle_beta   53.76277794
_cell_angle_gamma   90.00000000
_symmetry_Int_Tables_number   1
_chemical_formula_structural   MnFeB2
_chemical_formula_sum   'Mn2 Fe2 B4'
_cell_volume   71.46779573
_cell_formula_units_Z   2
loop_
 _symmetry_equiv_pos_site_id
 _symmetry_equiv_pos_as_xyz
  1  'x, y, z'
loop_
 _atom_site_type_symbol
 _atom_site_label
 _atom_site_symmetry_multiplicity
 _atom_site_fract_x
 _atom_site_fract_y
 _atom_site_fract_z
 _atom_site_occupancy
  B  B0  1  0.62940135  0.12500000  0.25000000  1
  B  B1  1  0.12059865  0.62500000  0.25000000  1
  B  B2  1  0.37500000  0.37059865  0.75000000  1
  B  B3  1  0.87500000  0.87940135  0.75000000  1
  Mn  Mn4  1  0.50000000  0.50000000  0.00000000  1
  Mn  Mn5  1  0.25000000  0.75000000  0.50000000  1
  Fe  Fe6  1  0.00000000  0.00000000  0.00000000  1
  Fe  Fe7  1  0.75000000  0.25000000  0.50000000  1
