# generated using pymatgen
data_AcPmNdHo2
_symmetry_space_group_name_H-M   'P 1'
_cell_length_a   6.47303109
_cell_length_b   6.59854044
_cell_length_c   9.34248633
_cell_angle_alpha   110.67991572
_cell_angle_beta   90.00000000
_cell_angle_gamma   90.00000000
_symmetry_Int_Tables_number   1
_chemical_formula_structural   AcPmNdHo2
_chemical_formula_sum   'Ac2 Pm2 Nd2 Ho4'
_cell_volume   373.33039460
_cell_formula_units_Z   2
loop_
 _symmetry_equiv_pos_site_id
 _symmetry_equiv_pos_as_xyz
  1  'x, y, z'
loop_
 _atom_site_type_symbol
 _atom_site_label
 _atom_site_symmetry_multiplicity
 _atom_site_fract_x
 _atom_site_fract_y
 _atom_site_fract_z
 _atom_site_occupancy
  Ac  Ac0  1  0.25000000  0.65668955  0.31337911  1
  Ac  Ac1  1  0.75000000  0.34331045  0.68662089  1
  Pm  Pm2  1  0.75000000  0.78096592  0.56193283  1
  Pm  Pm3  1  0.25000000  0.21903408  0.43806717  1
  Nd  Nd4  1  0.25000000  0.84777407  0.69554814  1
  Nd  Nd5  1  0.75000000  0.15222593  0.30445186  1
  Ho  Ho6  1  0.50000000  0.24293292  1.00000000  1
  Ho  Ho7  1  0.00000000  0.75706708  0.00000000  1
  Ho  Ho8  1  0.50000000  0.75706708  0.00000000  1
  Ho  Ho9  1  0.00000000  0.24293292  1.00000000  1
