# generated using pymatgen
data_Na2ZnSn2
_symmetry_space_group_name_H-M   'P 1'
_cell_length_a   7.19877151
_cell_length_b   7.19877151
_cell_length_c   5.17020922
_cell_angle_alpha   90.00000000
_cell_angle_beta   90.00000000
_cell_angle_gamma   90.00000000
_symmetry_Int_Tables_number   1
_chemical_formula_structural   Na2ZnSn2
_chemical_formula_sum   'Na4 Zn2 Sn4'
_cell_volume   267.93219144
_cell_formula_units_Z   2
loop_
 _symmetry_equiv_pos_site_id
 _symmetry_equiv_pos_as_xyz
  1  'x, y, z'
loop_
 _atom_site_type_symbol
 _atom_site_label
 _atom_site_symmetry_multiplicity
 _atom_site_fract_x
 _atom_site_fract_y
 _atom_site_fract_z
 _atom_site_occupancy
  Na  Na0  1  0.16522903  0.66522903  0.50000000  1
  Na  Na1  1  0.66522903  0.83477097  0.50000000  1
  Na  Na2  1  0.83477097  0.33477097  0.50000000  1
  Na  Na3  1  0.33477097  0.16522903  0.50000000  1
  Zn  Zn4  1  0.00000000  0.00000000  0.00000000  1
  Zn  Zn5  1  0.50000000  0.50000000  0.00000000  1
  Sn  Sn6  1  0.35489776  0.85489776  0.00000000  1
  Sn  Sn7  1  0.85489776  0.64510224  0.00000000  1
  Sn  Sn8  1  0.64510224  0.14510224  0.00000000  1
  Sn  Sn9  1  0.14510224  0.35489776  0.00000000  1
