# generated using pymatgen
data_Hf6BP2
_symmetry_space_group_name_H-M   'P 1'
_cell_length_a   5.83018250
_cell_length_b   6.62790439
_cell_length_c   8.48020304
_cell_angle_alpha   90.00000000
_cell_angle_beta   91.89317882
_cell_angle_gamma   90.00000000
_symmetry_Int_Tables_number   1
_chemical_formula_structural   Hf6BP2
_chemical_formula_sum   'Hf12 B2 P4'
_cell_volume   327.51222334
_cell_formula_units_Z   2
loop_
 _symmetry_equiv_pos_site_id
 _symmetry_equiv_pos_as_xyz
  1  'x, y, z'
loop_
 _atom_site_type_symbol
 _atom_site_label
 _atom_site_symmetry_multiplicity
 _atom_site_fract_x
 _atom_site_fract_y
 _atom_site_fract_z
 _atom_site_occupancy
  Hf  Hf0  1  0.84480310  0.96860051  0.24795318  1
  Hf  Hf1  1  0.84859854  0.68372469  0.55500265  1
  Hf  Hf2  1  0.84134330  0.67846565  0.94772132  1
  Hf  Hf3  1  0.65865670  0.17846565  0.55227868  1
  Hf  Hf4  1  0.65140146  0.18372469  0.94499735  1
  Hf  Hf5  1  0.65519690  0.46860051  0.25204682  1
  Hf  Hf6  1  0.15519690  0.03139949  0.75204682  1
  Hf  Hf7  1  0.15140146  0.31627531  0.44499735  1
  Hf  Hf8  1  0.15865670  0.32153435  0.05227868  1
  Hf  Hf9  1  0.34134330  0.82153435  0.44772132  1
  Hf  Hf10  1  0.34859854  0.81627531  0.05500265  1
  Hf  Hf11  1  0.34480310  0.53139949  0.74795318  1
  B  B12  1  0.50000000  0.50000000  0.00000000  1
  B  B13  1  0.00000000  0.00000000  0.50000000  1
  P  P14  1  0.93647545  0.37625941  0.75637540  1
  P  P15  1  0.56352455  0.87625941  0.74362460  1
  P  P16  1  0.43647545  0.12374059  0.25637540  1
  P  P17  1  0.06352455  0.62374059  0.24362460  1
