# generated using pymatgen
data_TaPIr
_symmetry_space_group_name_H-M   'P 1'
_cell_length_a   5.78484476
_cell_length_b   5.78484476
_cell_length_c   5.78484476
_cell_angle_alpha   90.00000000
_cell_angle_beta   90.00000000
_cell_angle_gamma   90.00000000
_symmetry_Int_Tables_number   1
_chemical_formula_structural   TaPIr
_chemical_formula_sum   'Ta4 P4 Ir4'
_cell_volume   193.58652615
_cell_formula_units_Z   4
loop_
 _symmetry_equiv_pos_site_id
 _symmetry_equiv_pos_as_xyz
  1  'x, y, z'
loop_
 _atom_site_type_symbol
 _atom_site_label
 _atom_site_symmetry_multiplicity
 _atom_site_fract_x
 _atom_site_fract_y
 _atom_site_fract_z
 _atom_site_occupancy
  P  P0  1  0.21831755  0.28168245  0.71831755  1
  P  P1  1  0.71831755  0.21831755  0.28168245  1
  P  P2  1  0.28168245  0.71831755  0.21831755  1
  P  P3  1  0.78168245  0.78168245  0.78168245  1
  Ir  Ir4  1  0.58564673  0.91435327  0.08564673  1
  Ir  Ir5  1  0.08564673  0.58564673  0.91435327  1
  Ir  Ir6  1  0.41435327  0.41435327  0.41435327  1
  Ir  Ir7  1  0.91435327  0.08564673  0.58564673  1
  Ta  Ta8  1  0.59318402  0.40681598  0.90681598  1
  Ta  Ta9  1  0.40681598  0.90681598  0.59318402  1
  Ta  Ta10  1  0.09318402  0.09318402  0.09318402  1
  Ta  Ta11  1  0.90681598  0.59318402  0.40681598  1
