# generated using pymatgen
data_Cs2SmTiO4
_symmetry_space_group_name_H-M   'P 1'
_cell_length_a   6.06926607
_cell_length_b   7.43236190
_cell_length_c   12.69868753
_cell_angle_alpha   84.40060850
_cell_angle_beta   76.17411451
_cell_angle_gamma   65.90191469
_symmetry_Int_Tables_number   1
_chemical_formula_structural   Cs2SmTiO4
_chemical_formula_sum   'Cs4 Sm2 Ti2 O8'
_cell_volume   507.75158720
_cell_formula_units_Z   2
loop_
 _symmetry_equiv_pos_site_id
 _symmetry_equiv_pos_as_xyz
  1  'x, y, z'
loop_
 _atom_site_type_symbol
 _atom_site_label
 _atom_site_symmetry_multiplicity
 _atom_site_fract_x
 _atom_site_fract_y
 _atom_site_fract_z
 _atom_site_occupancy
  Cs  Cs0  1  0.18120382  0.00000000  0.63759236  1
  Cs  Cs1  1  0.81879618  0.00000000  0.36240764  1
  Cs  Cs2  1  0.56879618  0.50000000  0.86240764  1
  Cs  Cs3  1  0.93120382  0.50000000  0.13759236  1
  Sm  Sm4  1  0.75000000  0.50000000  0.50000000  1
  Sm  Sm5  1  0.00000000  0.00000000  0.00000000  1
  Ti  Ti6  1  0.25000000  0.50000000  0.50000000  1
  Ti  Ti7  1  0.50000000  0.00000000  0.00000000  1
  O  O8  1  0.33612279  0.84632233  0.07251641  1
  O  O9  1  0.25496153  0.15367767  0.92748359  1
  O  O10  1  0.81755488  0.84632233  0.92748359  1
  O  O11  1  0.59136080  0.15367767  0.07251641  1
  O  O12  1  0.41387721  0.65367767  0.42748359  1
  O  O13  1  0.49503847  0.34632233  0.57251641  1
  O  O14  1  0.93244512  0.65367767  0.57251641  1
  O  O15  1  0.15863920  0.34632233  0.42748359  1
