# generated using pymatgen
data_Pm2CrAsO8
_symmetry_space_group_name_H-M   'P 1'
_cell_length_a   6.43929038
_cell_length_b   6.43929038
_cell_length_c   5.00201903
_cell_angle_alpha   90.00000000
_cell_angle_beta   90.00000000
_cell_angle_gamma   120.00000001
_symmetry_Int_Tables_number   1
_chemical_formula_structural   Pm2CrAsO8
_chemical_formula_sum   'Pm2 Cr1 As1 O8'
_cell_volume   179.61888302
_cell_formula_units_Z   1
loop_
 _symmetry_equiv_pos_site_id
 _symmetry_equiv_pos_as_xyz
  1  'x, y, z'
loop_
 _atom_site_type_symbol
 _atom_site_label
 _atom_site_symmetry_multiplicity
 _atom_site_fract_x
 _atom_site_fract_y
 _atom_site_fract_z
 _atom_site_occupancy
  Pm  Pm0  1  0.66666667  0.33333333  0.76457921  1
  Pm  Pm1  1  0.33333333  0.66666667  0.23542079  1
  Cr  Cr2  1  0.00000000  0.00000000  0.50000000  1
  As  As3  1  0.00000000  0.00000000  0.00000000  1
  O  O4  1  0.86981304  0.73962609  0.76858998  1
  O  O5  1  0.26037391  0.13018696  0.76858998  1
  O  O6  1  0.86981304  0.13018696  0.76858998  1
  O  O7  1  0.13018696  0.26037391  0.23141002  1
  O  O8  1  0.73962609  0.86981304  0.23141002  1
  O  O9  1  0.13018696  0.86981304  0.23141002  1
  O  O10  1  0.66666667  0.33333333  0.26454021  1
  O  O11  1  0.33333333  0.66666667  0.73545979  1
