# generated using pymatgen
data_V3N2
_symmetry_space_group_name_H-M   'P 1'
_cell_length_a   9.21182331
_cell_length_b   4.79498514
_cell_length_c   18.71415398
_cell_angle_alpha   90.00000000
_cell_angle_beta   90.00000000
_cell_angle_gamma   89.99999427
_symmetry_Int_Tables_number   1
_chemical_formula_structural   V3N2
_chemical_formula_sum   'V12 N8'
_cell_volume   826.61458419
_cell_formula_units_Z   4
loop_
 _symmetry_equiv_pos_site_id
 _symmetry_equiv_pos_as_xyz
  1  'x, y, z'
loop_
 _atom_site_type_symbol
 _atom_site_label
 _atom_site_symmetry_multiplicity
 _atom_site_fract_x
 _atom_site_fract_y
 _atom_site_fract_z
 _atom_site_occupancy
  V  V0  1  0.18504891  0.85837731  0.56525693  1
  V  V1  1  0.41056656  0.82779210  0.48983712  1
  V  V2  1  0.08943314  0.32780088  0.51015673  1
  V  V3  1  0.31495391  0.35837842  0.43474178  1
  V  V4  1  0.58943492  0.32777565  0.48984235  1
  V  V5  1  0.81495756  0.35836472  0.56526054  1
  V  V6  1  0.68503910  0.85836518  0.43474593  1
  V  V7  1  0.91056882  0.82778594  0.51015695  1
  V  V8  1  0.91471234  0.33704651  0.41939475  1
  V  V9  1  0.58527837  0.83704714  0.58060545  1
  V  V10  1  0.08528617  0.83706369  0.41939284  1
  V  V11  1  0.41472120  0.33706748  0.58060218  1
  N  N12  1  0.72706296  0.02915492  0.52626935  1
  N  N13  1  0.77293894  0.52916203  0.47373890  1
  N  N14  1  0.27293944  0.52917302  0.52626370  1
  N  N15  1  0.22706105  0.02917966  0.47373647  1
  N  N16  1  0.88432520  0.94760820  0.40076694  1
  N  N17  1  0.11566665  0.44762122  0.40076812  1
  N  N18  1  0.38432950  0.94762513  0.59922839  1
  N  N19  1  0.61567526  0.44761078  0.59923458  1
