# generated using pymatgen
data_La2CePb3
_symmetry_space_group_name_H-M   'P 1'
_cell_length_a   6.01090482
_cell_length_b   9.51309114
_cell_length_c   6.93997216
_cell_angle_alpha   89.99886943
_cell_angle_beta   89.99871431
_cell_angle_gamma   71.69162759
_symmetry_Int_Tables_number   1
_chemical_formula_structural   La2CePb3
_chemical_formula_sum   'La4 Ce2 Pb6'
_cell_volume   376.75508792
_cell_formula_units_Z   2
loop_
 _symmetry_equiv_pos_site_id
 _symmetry_equiv_pos_as_xyz
  1  'x, y, z'
loop_
 _atom_site_type_symbol
 _atom_site_label
 _atom_site_symmetry_multiplicity
 _atom_site_fract_x
 _atom_site_fract_y
 _atom_site_fract_z
 _atom_site_occupancy
  La  La0  1  0.00000000  0.00000000  0.00000000  1
  La  La1  1  -0.00000000  -0.00000000  0.50000000  1
  La  La2  1  0.33404164  0.33191150  0.50000117  1
  La  La3  1  0.66595836  0.66808850  0.49999883  1
  Ce  Ce4  1  0.33413663  0.33176383  0.99999844  1
  Ce  Ce5  1  0.66586337  0.66823617  0.00000156  1
  Pb  Pb6  1  0.83175436  0.33649297  0.75672236  1
  Pb  Pb7  1  0.50000051  0.00000146  0.24554104  1
  Pb  Pb8  1  0.16824564  0.66350703  0.24327764  1
  Pb  Pb9  1  0.83174907  0.33649168  0.24328011  1
  Pb  Pb10  1  0.16825093  0.66350832  0.75671989  1
  Pb  Pb11  1  0.49999949  0.99999854  0.75445896  1
