# generated using pymatgen
data_Tl2RhW
_symmetry_space_group_name_H-M   'P 1'
_cell_length_a   4.65444720
_cell_length_b   2.99514450
_cell_length_c   5.53465440
_cell_angle_alpha   87.37784057
_cell_angle_beta   90.00000000
_cell_angle_gamma   90.00000000
_symmetry_Int_Tables_number   1
_chemical_formula_structural   Tl2RhW
_chemical_formula_sum   'Tl2 Rh1 W1'
_cell_volume   77.07640137
_cell_formula_units_Z   1
loop_
 _symmetry_equiv_pos_site_id
 _symmetry_equiv_pos_as_xyz
  1  'x, y, z'
loop_
 _atom_site_type_symbol
 _atom_site_label
 _atom_site_symmetry_multiplicity
 _atom_site_fract_x
 _atom_site_fract_y
 _atom_site_fract_z
 _atom_site_occupancy
  Tl  Tl0  1  0.00000000  0.21538769  0.74628556  1
  Tl  Tl1  1  0.00000000  0.78461231  0.25371444  1
  Rh  Rh2  1  0.50000000  0.00000000  0.50000000  1
  W  W3  1  0.50000000  0.50000000  0.00000000  1
