# generated using pymatgen
data_SrLiBiS3
_symmetry_space_group_name_H-M   'P 1'
_cell_length_a   4.05705360
_cell_length_b   8.54214193
_cell_length_c   8.71061786
_cell_angle_alpha   103.05051247
_cell_angle_beta   90.00000000
_cell_angle_gamma   90.00000000
_symmetry_Int_Tables_number   1
_chemical_formula_structural   SrLiBiS3
_chemical_formula_sum   'Sr2 Li2 Bi2 S6'
_cell_volume   294.07753611
_cell_formula_units_Z   2
loop_
 _symmetry_equiv_pos_site_id
 _symmetry_equiv_pos_as_xyz
  1  'x, y, z'
loop_
 _atom_site_type_symbol
 _atom_site_label
 _atom_site_symmetry_multiplicity
 _atom_site_fract_x
 _atom_site_fract_y
 _atom_site_fract_z
 _atom_site_occupancy
  Sr  Sr0  1  0.25000000  0.18756293  0.23574173  1
  Sr  Sr1  1  0.75000000  0.81243707  0.76425827  1
  Li  Li2  1  0.25000000  0.08704574  0.58893649  1
  Li  Li3  1  0.75000000  0.91295426  0.41106351  1
  Bi  Bi4  1  0.25000000  0.66867402  0.16676303  1
  Bi  Bi5  1  0.75000000  0.33132598  0.83323697  1
  S  S6  1  0.75000000  0.89122095  0.12878045  1
  S  S7  1  0.25000000  0.10877905  0.87121955  1
  S  S8  1  0.25000000  0.79959472  0.49492424  1
  S  S9  1  0.75000000  0.20040528  0.50507576  1
  S  S10  1  0.75000000  0.43181887  0.16941651  1
  S  S11  1  0.25000000  0.56818113  0.83058349  1
