# generated using pymatgen
data_Ba(CuO2)2
_symmetry_space_group_name_H-M   'P 1'
_cell_length_a   6.66489637
_cell_length_b   6.66489637
_cell_length_c   6.66489637
_cell_angle_alpha   102.82592801
_cell_angle_beta   123.78103184
_cell_angle_gamma   102.82592802
_symmetry_Int_Tables_number   1
_chemical_formula_structural   Ba(CuO2)2
_chemical_formula_sum   'Ba2 Cu4 O8'
_cell_volume   217.05109605
_cell_formula_units_Z   2
loop_
 _symmetry_equiv_pos_site_id
 _symmetry_equiv_pos_as_xyz
  1  'x, y, z'
loop_
 _atom_site_type_symbol
 _atom_site_label
 _atom_site_symmetry_multiplicity
 _atom_site_fract_x
 _atom_site_fract_y
 _atom_site_fract_z
 _atom_site_occupancy
  Ba  Ba0  1  0.00000000  0.00000000  0.00000000  1
  Ba  Ba1  1  0.75000000  0.50000000  0.25000000  1
  Cu  Cu2  1  0.87500000  0.31335780  0.68835780  1
  Cu  Cu3  1  0.31164220  0.18664220  0.62500000  1
  Cu  Cu4  1  0.37500000  0.68664220  0.56164220  1
  Cu  Cu5  1  0.43835780  0.81335780  0.12500000  1
  O  O6  1  0.20194474  0.87743848  0.48778221  1
  O  O7  1  0.51221779  0.71416254  0.38965627  1
  O  O8  1  0.07450627  0.62256152  0.86034373  1
  O  O9  1  0.13965627  0.21416254  0.76221779  1
  O  O10  1  0.54805526  0.78583746  0.92549373  1
  O  O11  1  0.67549373  0.28583746  0.79805526  1
  O  O12  1  0.61034373  0.12256152  0.32450627  1
  O  O13  1  0.23778221  0.37743848  0.45194474  1
