# generated using pymatgen
data_Li2Th2BRh4
_symmetry_space_group_name_H-M   'P 1'
_cell_length_a   5.90706339
_cell_length_b   5.90706339
_cell_length_c   5.90706339
_cell_angle_alpha   93.83002726
_cell_angle_beta   117.81392370
_cell_angle_gamma   117.81392377
_symmetry_Int_Tables_number   1
_chemical_formula_structural   Li2Th2BRh4
_chemical_formula_sum   'Li2 Th2 B1 Rh4'
_cell_volume   150.19992419
_cell_formula_units_Z   1
loop_
 _symmetry_equiv_pos_site_id
 _symmetry_equiv_pos_as_xyz
  1  'x, y, z'
loop_
 _atom_site_type_symbol
 _atom_site_label
 _atom_site_symmetry_multiplicity
 _atom_site_fract_x
 _atom_site_fract_y
 _atom_site_fract_z
 _atom_site_occupancy
  Li  Li0  1  1.00000000  0.70467239  0.70467239  1
  Li  Li1  1  0.00000000  0.29532761  0.29532761  1
  Th  Th2  1  0.50000000  0.75000000  0.25000000  1
  Th  Th3  1  0.50000000  0.25000000  0.75000000  1
  B  B4  1  0.00000000  0.00000000  0.00000000  1
  Rh  Rh5  1  -0.00000000  0.75470976  0.24529024  1
  Rh  Rh6  1  0.50941852  0.75470876  0.75470876  1
  Rh  Rh7  1  -0.00000000  0.24529024  0.75470976  1
  Rh  Rh8  1  0.49058148  0.24529124  0.24529124  1
