# generated using pymatgen
data_KU(CuSe2)2
_symmetry_space_group_name_H-M   'P 1'
_cell_length_a   6.61967136
_cell_length_b   6.63663531
_cell_length_c   6.63663531
_cell_angle_alpha   72.26354005
_cell_angle_beta   60.08451939
_cell_angle_gamma   60.08451937
_symmetry_Int_Tables_number   1
_chemical_formula_structural   KU(CuSe2)2
_chemical_formula_sum   'K1 U1 Cu2 Se4'
_cell_volume   218.43683351
_cell_formula_units_Z   1
loop_
 _symmetry_equiv_pos_site_id
 _symmetry_equiv_pos_as_xyz
  1  'x, y, z'
loop_
 _atom_site_type_symbol
 _atom_site_label
 _atom_site_symmetry_multiplicity
 _atom_site_fract_x
 _atom_site_fract_y
 _atom_site_fract_z
 _atom_site_occupancy
  K  K0  1  0.00000000  0.00000000  0.00000000  1
  U  U1  1  0.50000000  0.50000000  0.50000000  1
  Cu  Cu2  1  0.14797039  0.35202961  0.35202961  1
  Cu  Cu3  1  0.85202961  0.64797039  0.64797039  1
  Se  Se4  1  0.45043125  0.11964039  0.50327692  1
  Se  Se5  1  0.07334755  0.88035961  0.49672308  1
  Se  Se6  1  0.92665145  0.50327692  0.11964039  1
  Se  Se7  1  0.54956975  0.49672308  0.88035961  1
