# generated using pymatgen
data_MnAuSe2
_symmetry_space_group_name_H-M   'P 1'
_cell_length_a   8.10718130
_cell_length_b   8.10718130
_cell_length_c   6.32252496
_cell_angle_alpha   50.12351070
_cell_angle_beta   50.12351070
_cell_angle_gamma   90.00000000
_symmetry_Int_Tables_number   1
_chemical_formula_structural   MnAuSe2
_chemical_formula_sum   'Mn2 Au2 Se4'
_cell_volume   175.27057300
_cell_formula_units_Z   2
loop_
 _symmetry_equiv_pos_site_id
 _symmetry_equiv_pos_as_xyz
  1  'x, y, z'
loop_
 _atom_site_type_symbol
 _atom_site_label
 _atom_site_symmetry_multiplicity
 _atom_site_fract_x
 _atom_site_fract_y
 _atom_site_fract_z
 _atom_site_occupancy
  Mn  Mn0  1  0.75000000  0.25000000  0.50000000  1
  Mn  Mn1  1  0.25000000  0.75000000  0.50000000  1
  Au  Au2  1  0.75000000  0.75000000  0.50000000  1
  Au  Au3  1  0.25000000  0.25000000  0.50000000  1
  Se  Se4  1  0.84277581  0.34277581  0.00000000  1
  Se  Se5  1  0.15722419  0.65722419  0.00000000  1
  Se  Se6  1  0.34277581  0.15722419  0.00000000  1
  Se  Se7  1  0.65722419  0.84277581  0.00000000  1
