# generated using pymatgen
data_InTeSe2
_symmetry_space_group_name_H-M   'P 1'
_cell_length_a   6.76392140
_cell_length_b   6.76392141
_cell_length_c   4.18360284
_cell_angle_alpha   108.17253870
_cell_angle_beta   108.17253868
_cell_angle_gamma   36.01564790
_symmetry_Int_Tables_number   1
_chemical_formula_structural   InTeSe2
_chemical_formula_sum   'In1 Te1 Se2'
_cell_volume   106.32172977
_cell_formula_units_Z   1
loop_
 _symmetry_equiv_pos_site_id
 _symmetry_equiv_pos_as_xyz
  1  'x, y, z'
loop_
 _atom_site_type_symbol
 _atom_site_label
 _atom_site_symmetry_multiplicity
 _atom_site_fract_x
 _atom_site_fract_y
 _atom_site_fract_z
 _atom_site_occupancy
  In  In0  1  0.24701751  0.24701751  0.24805469  1
  Se  Se1  1  0.01156400  0.01156400  0.01064180  1
  Se  Se2  1  0.74242282  0.74242282  0.74307302  1
  Te  Te3  1  0.49899567  0.49899567  0.49823049  1
