# generated using pymatgen
data_Pm4Sm5Ag
_symmetry_space_group_name_H-M   'P 1'
_cell_length_a   3.64520371
_cell_length_b   3.64520371
_cell_length_c   24.45531832
_cell_angle_alpha   90.00000000
_cell_angle_beta   90.00000000
_cell_angle_gamma   90.00000000
_symmetry_Int_Tables_number   1
_chemical_formula_structural   Pm4Sm5Ag
_chemical_formula_sum   'Pm4 Sm5 Ag1'
_cell_volume   324.95028887
_cell_formula_units_Z   1
loop_
 _symmetry_equiv_pos_site_id
 _symmetry_equiv_pos_as_xyz
  1  'x, y, z'
loop_
 _atom_site_type_symbol
 _atom_site_label
 _atom_site_symmetry_multiplicity
 _atom_site_fract_x
 _atom_site_fract_y
 _atom_site_fract_z
 _atom_site_occupancy
  Pm  Pm0  1  0.00000000  0.00000000  0.18498164  1
  Pm  Pm1  1  0.00000000  0.00000000  0.39474260  1
  Pm  Pm2  1  0.00000000  0.00000000  0.60525740  1
  Pm  Pm3  1  0.00000000  0.00000000  0.81501836  1
  Sm  Sm4  1  0.50000000  0.50000000  0.07896804  1
  Sm  Sm5  1  0.50000000  0.50000000  0.28916986  1
  Sm  Sm6  1  0.50000000  0.50000000  0.50000000  1
  Sm  Sm7  1  0.50000000  0.50000000  0.71083014  1
  Sm  Sm8  1  0.50000000  0.50000000  0.92103196  1
  Ag  Ag9  1  0.00000000  0.00000000  0.00000000  1
