# generated using pymatgen
data_Ti2MnAl5Co2
_symmetry_space_group_name_H-M   'P 1'
_cell_length_a   3.89145705
_cell_length_b   8.57484870
_cell_length_c   8.57484870
_cell_angle_alpha   90.00000000
_cell_angle_beta   90.00000000
_cell_angle_gamma   90.00000000
_symmetry_Int_Tables_number   1
_chemical_formula_structural   Ti2MnAl5Co2
_chemical_formula_sum   'Ti4 Mn2 Al10 Co4'
_cell_volume   286.13117160
_cell_formula_units_Z   2
loop_
 _symmetry_equiv_pos_site_id
 _symmetry_equiv_pos_as_xyz
  1  'x, y, z'
loop_
 _atom_site_type_symbol
 _atom_site_label
 _atom_site_symmetry_multiplicity
 _atom_site_fract_x
 _atom_site_fract_y
 _atom_site_fract_z
 _atom_site_occupancy
  Ti  Ti0  1  0.00000000  0.67442463  0.17442463  1
  Ti  Ti1  1  0.00000000  0.32557537  0.82557537  1
  Ti  Ti2  1  0.00000000  0.17442463  0.32557537  1
  Ti  Ti3  1  0.00000000  0.82557537  0.67442463  1
  Mn  Mn4  1  0.00000000  0.00000000  0.00000000  1
  Mn  Mn5  1  0.00000000  0.50000000  0.50000000  1
  Al  Al6  1  0.50000000  0.20558878  0.07099097  1
  Al  Al7  1  0.50000000  0.79441122  0.92900903  1
  Al  Al8  1  0.50000000  0.07099097  0.79441122  1
  Al  Al9  1  0.50000000  0.70558878  0.42900903  1
  Al  Al10  1  0.50000000  0.92900903  0.20558878  1
  Al  Al11  1  0.50000000  0.29441122  0.57099097  1
  Al  Al12  1  0.50000000  0.57099097  0.70558878  1
  Al  Al13  1  0.50000000  0.42900903  0.29441122  1
  Al  Al14  1  0.50000000  0.50000000  0.00000000  1
  Al  Al15  1  0.50000000  0.00000000  0.50000000  1
  Co  Co16  1  0.00000000  0.11957538  0.61957538  1
  Co  Co17  1  0.00000000  0.88042462  0.38042462  1
  Co  Co18  1  0.00000000  0.61957538  0.88042462  1
  Co  Co19  1  0.00000000  0.38042462  0.11957538  1
