# generated using pymatgen
data_Ac2UNi9
_symmetry_space_group_name_H-M   'P 1'
_cell_length_a   5.00717680
_cell_length_b   5.00717680
_cell_length_c   9.12918408
_cell_angle_alpha   74.08326553
_cell_angle_beta   74.08326549
_cell_angle_gamma   60.00000000
_symmetry_Int_Tables_number   1
_chemical_formula_structural   Ac2UNi9
_chemical_formula_sum   'Ac2 U1 Ni9'
_cell_volume   188.01950149
_cell_formula_units_Z   1
loop_
 _symmetry_equiv_pos_site_id
 _symmetry_equiv_pos_as_xyz
  1  'x, y, z'
loop_
 _atom_site_type_symbol
 _atom_site_label
 _atom_site_symmetry_multiplicity
 _atom_site_fract_x
 _atom_site_fract_y
 _atom_site_fract_z
 _atom_site_occupancy
  Ac  Ac0  1  0.86534219  0.86534219  0.40397242  1
  Ac  Ac1  1  0.13465781  0.13465781  0.59602758  1
  U  U2  1  0.00000000  0.00000000  0.00000000  1
  Ni  Ni3  1  0.66714259  0.66714259  0.99857322  1
  Ni  Ni4  1  0.33285741  0.33285741  0.00142678  1
  Ni  Ni5  1  0.50000000  0.50000000  0.50000000  1
  Ni  Ni6  1  0.42449910  0.42449910  0.22855555  1
  Ni  Ni7  1  0.92244725  0.42449910  0.22855555  1
  Ni  Ni8  1  0.42449910  0.92244725  0.22855555  1
  Ni  Ni9  1  0.57550090  0.57550090  0.77144445  1
  Ni  Ni10  1  0.57550090  0.07755275  0.77144445  1
  Ni  Ni11  1  0.07755275  0.57550090  0.77144445  1
