# generated using pymatgen
data_Tb2Pr2In7
_symmetry_space_group_name_H-M   'P 1'
_cell_length_a   7.76552362
_cell_length_b   6.08136080
_cell_length_c   7.76552362
_cell_angle_alpha   89.99870305
_cell_angle_beta   96.10009680
_cell_angle_gamma   90.00129699
_symmetry_Int_Tables_number   1
_chemical_formula_structural   Tb2Pr2In7
_chemical_formula_sum   'Tb2 Pr2 In7'
_cell_volume   364.64998009
_cell_formula_units_Z   1
loop_
 _symmetry_equiv_pos_site_id
 _symmetry_equiv_pos_as_xyz
  1  'x, y, z'
loop_
 _atom_site_type_symbol
 _atom_site_label
 _atom_site_symmetry_multiplicity
 _atom_site_fract_x
 _atom_site_fract_y
 _atom_site_fract_z
 _atom_site_occupancy
  Tb  Tb0  1  0.73214823  0.99997661  0.26785177  1
  Tb  Tb1  1  0.26785177  0.00002339  0.73214823  1
  Pr  Pr2  1  0.80174523  0.50000000  0.80174523  1
  Pr  Pr3  1  0.19825477  0.50000000  0.19825477  1
  In  In4  1  0.99978301  0.26202681  0.50034425  1
  In  In5  1  0.50034425  0.73797319  0.99978301  1
  In  In6  1  0.00021699  0.73797319  0.49965575  1
  In  In7  1  0.49965575  0.26202681  0.00021699  1
  In  In8  1  0.00000000  0.00000000  0.00000000  1
  In  In9  1  0.50022938  0.73734276  0.49977062  1
  In  In10  1  0.49977062  0.26265724  0.50022938  1
