# generated using pymatgen
data_YUC2
_symmetry_space_group_name_H-M   'P 1'
_cell_length_a   3.54668857
_cell_length_b   3.54668857
_cell_length_c   6.19362797
_cell_angle_alpha   73.36237994
_cell_angle_beta   73.36237993
_cell_angle_gamma   59.99999992
_symmetry_Int_Tables_number   1
_chemical_formula_structural   YUC2
_chemical_formula_sum   'Y1 U1 C2'
_cell_volume   63.67760134
_cell_formula_units_Z   1
loop_
 _symmetry_equiv_pos_site_id
 _symmetry_equiv_pos_as_xyz
  1  'x, y, z'
loop_
 _atom_site_type_symbol
 _atom_site_label
 _atom_site_symmetry_multiplicity
 _atom_site_fract_x
 _atom_site_fract_y
 _atom_site_fract_z
 _atom_site_occupancy
  Y  Y0  1  0.49465882  0.49465882  0.51602355  1
  U  U1  1  0.66752792  0.66752792  0.99741524  1
  C  C2  1  0.07210310  0.07210310  0.78369071  1
  C  C3  1  0.26571017  0.26571017  0.20286950  1
