# generated using pymatgen
data_AgMoIr2
_symmetry_space_group_name_H-M   'P 1'
_cell_length_a   9.55260698
_cell_length_b   9.55260697
_cell_length_c   9.55260697
_cell_angle_alpha   16.64350043
_cell_angle_beta   16.64350047
_cell_angle_gamma   16.64350043
_symmetry_Int_Tables_number   1
_chemical_formula_structural   AgMoIr2
_chemical_formula_sum   'Ag1 Mo1 Ir2'
_cell_volume   62.36390090
_cell_formula_units_Z   1
loop_
 _symmetry_equiv_pos_site_id
 _symmetry_equiv_pos_as_xyz
  1  'x, y, z'
loop_
 _atom_site_type_symbol
 _atom_site_label
 _atom_site_symmetry_multiplicity
 _atom_site_fract_x
 _atom_site_fract_y
 _atom_site_fract_z
 _atom_site_occupancy
  Ag  Ag0  1  0.74943076  0.74943076  0.74943076  1
  Ir  Ir1  1  0.99630938  0.99630938  0.99630938  1
  Ir  Ir2  1  0.24896064  0.24896064  0.24896064  1
  Mo  Mo3  1  0.50529921  0.50529921  0.50529921  1
