# generated using pymatgen
data_NdPu3Th2N6
_symmetry_space_group_name_H-M   'P 1'
_cell_length_a   6.20501583
_cell_length_b   6.20501583
_cell_length_c   6.16282307
_cell_angle_alpha   99.66029145
_cell_angle_beta   99.66029148
_cell_angle_gamma   119.96470609
_symmetry_Int_Tables_number   1
_chemical_formula_structural   NdPu3Th2N6
_chemical_formula_sum   'Nd1 Pu3 Th2 N6'
_cell_volume   193.65594036
_cell_formula_units_Z   1
loop_
 _symmetry_equiv_pos_site_id
 _symmetry_equiv_pos_as_xyz
  1  'x, y, z'
loop_
 _atom_site_type_symbol
 _atom_site_label
 _atom_site_symmetry_multiplicity
 _atom_site_fract_x
 _atom_site_fract_y
 _atom_site_fract_z
 _atom_site_occupancy
  Nd  Nd0  1  0.00000000  0.00000000  0.00000000  1
  Pu  Pu1  1  0.16518121  0.83481879  0.50000000  1
  Pu  Pu2  1  0.83481879  0.16518121  0.50000000  1
  Pu  Pu3  1  0.50000000  0.50000000  0.50000000  1
  Th  Th4  1  0.33305171  0.66694829  0.00000000  1
  Th  Th5  1  0.66694829  0.33305171  0.00000000  1
  N  N6  1  0.91188218  0.57183135  0.73562885  1
  N  N7  1  0.74856521  0.74856521  0.26502777  1
  N  N8  1  0.08811782  0.42816865  0.26437115  1
  N  N9  1  0.57183135  0.91188218  0.73562885  1
  N  N10  1  0.25143479  0.25143479  0.73497223  1
  N  N11  1  0.42816865  0.08811782  0.26437115  1
