# generated using pymatgen
data_In6HgPb
_symmetry_space_group_name_H-M   'P 1'
_cell_length_a   4.52796768
_cell_length_b   10.16587917
_cell_length_c   6.96817996
_cell_angle_alpha   136.84032212
_cell_angle_beta   90.00000000
_cell_angle_gamma   90.00000000
_symmetry_Int_Tables_number   1
_chemical_formula_structural   In6HgPb
_chemical_formula_sum   'In6 Hg1 Pb1'
_cell_volume   219.40436293
_cell_formula_units_Z   1
loop_
 _symmetry_equiv_pos_site_id
 _symmetry_equiv_pos_as_xyz
  1  'x, y, z'
loop_
 _atom_site_type_symbol
 _atom_site_label
 _atom_site_symmetry_multiplicity
 _atom_site_fract_x
 _atom_site_fract_y
 _atom_site_fract_z
 _atom_site_occupancy
  In  In0  1  0.00000000  0.88016853  0.25207528  1
  In  In1  1  0.00000000  0.37190775  0.25207528  1
  In  In2  1  0.00000000  0.36984903  0.73969806  1
  In  In3  1  0.50000000  0.62765206  0.75140612  1
  In  In4  1  0.50000000  0.12375406  0.75140611  1
  In  In5  1  0.50000000  0.12005597  0.24011194  1
  Hg  Hg6  1  0.00000000  0.88031934  0.76063869  1
  Pb  Pb7  1  0.50000000  0.62629326  0.25258651  1
