# generated using pymatgen
data_BeZnCo2
_symmetry_space_group_name_H-M   'P 1'
_cell_length_a   8.18931108
_cell_length_b   8.18931108
_cell_length_c   8.18931108
_cell_angle_alpha   17.63749107
_cell_angle_beta   17.63749107
_cell_angle_gamma   17.63749107
_symmetry_Int_Tables_number   1
_chemical_formula_structural   BeZnCo2
_chemical_formula_sum   'Be1 Zn1 Co2'
_cell_volume   44.01036220
_cell_formula_units_Z   1
loop_
 _symmetry_equiv_pos_site_id
 _symmetry_equiv_pos_as_xyz
  1  'x, y, z'
loop_
 _atom_site_type_symbol
 _atom_site_label
 _atom_site_symmetry_multiplicity
 _atom_site_fract_x
 _atom_site_fract_y
 _atom_site_fract_z
 _atom_site_occupancy
  Be  Be0  1  0.74219499  0.74219499  0.74219499  1
  Zn  Zn1  1  0.49902440  0.49902440  0.49902440  1
  Co  Co2  1  0.00298932  0.00298932  0.00298932  1
  Co  Co3  1  0.25579129  0.25579129  0.25579129  1
