# generated using pymatgen
data_Ce2CdMo
_symmetry_space_group_name_H-M   'P 1'
_cell_length_a   3.40376331
_cell_length_b   3.40376331
_cell_length_c   8.43530250
_cell_angle_alpha   90.00000000
_cell_angle_beta   90.00000000
_cell_angle_gamma   90.00000000
_symmetry_Int_Tables_number   1
_chemical_formula_structural   Ce2CdMo
_chemical_formula_sum   'Ce2 Cd1 Mo1'
_cell_volume   97.72808004
_cell_formula_units_Z   1
loop_
 _symmetry_equiv_pos_site_id
 _symmetry_equiv_pos_as_xyz
  1  'x, y, z'
loop_
 _atom_site_type_symbol
 _atom_site_label
 _atom_site_symmetry_multiplicity
 _atom_site_fract_x
 _atom_site_fract_y
 _atom_site_fract_z
 _atom_site_occupancy
  Mo  Mo0  1  0.50000000  0.50000000  0.00000000  1
  Ce  Ce1  1  0.00000000  0.00000000  0.79123429  1
  Ce  Ce2  1  0.00000000  0.00000000  0.20876571  1
  Cd  Cd3  1  0.50000000  0.50000000  0.50000000  1
