# generated using pymatgen
data_Nd2BC2
_symmetry_space_group_name_H-M   'P 1'
_cell_length_a   3.83274872
_cell_length_b   3.83274872
_cell_length_c   5.94565369
_cell_angle_alpha   105.02366152
_cell_angle_beta   105.02366152
_cell_angle_gamma   89.70088029
_symmetry_Int_Tables_number   1
_chemical_formula_structural   Nd2BC2
_chemical_formula_sum   'Nd2 B1 C2'
_cell_volume   81.29261018
_cell_formula_units_Z   1
loop_
 _symmetry_equiv_pos_site_id
 _symmetry_equiv_pos_as_xyz
  1  'x, y, z'
loop_
 _atom_site_type_symbol
 _atom_site_label
 _atom_site_symmetry_multiplicity
 _atom_site_fract_x
 _atom_site_fract_y
 _atom_site_fract_z
 _atom_site_occupancy
  C  C0  1  0.85338958  0.85338958  0.73432642  1
  C  C1  1  0.14661042  0.14661042  0.26567358  1
  B  B2  1  0.00000000  0.00000000  0.00000000  1
  Nd  Nd3  1  0.66612561  0.66612561  0.28993892  1
  Nd  Nd4  1  0.33387439  0.33387439  0.71006108  1
