# generated using pymatgen
data_NpCoPt
_symmetry_space_group_name_H-M   'P 1'
_cell_length_a   4.06623126
_cell_length_b   6.57707727
_cell_length_c   6.91677418
_cell_angle_alpha   118.38315464
_cell_angle_beta   90.00000000
_cell_angle_gamma   90.00000000
_symmetry_Int_Tables_number   1
_chemical_formula_structural   NpCoPt
_chemical_formula_sum   'Np3 Co3 Pt3'
_cell_volume   162.74469232
_cell_formula_units_Z   3
loop_
 _symmetry_equiv_pos_site_id
 _symmetry_equiv_pos_as_xyz
  1  'x, y, z'
loop_
 _atom_site_type_symbol
 _atom_site_label
 _atom_site_symmetry_multiplicity
 _atom_site_fract_x
 _atom_site_fract_y
 _atom_site_fract_z
 _atom_site_occupancy
  Np  Np0  1  0.00000000  0.99170957  0.59524145  1
  Np  Np1  1  0.00000000  0.57017440  0.99998197  1
  Np  Np2  1  0.00000000  0.39649457  0.40476919  1
  Co  Co3  1  0.50000000  0.78547244  0.75357258  1
  Co  Co4  1  0.50000000  0.22249514  0.99998485  1
  Co  Co5  1  0.50000000  0.03188938  0.24647051  1
  Pt  Pt6  1  0.00000000  0.99141894  0.99997870  1
  Pt  Pt7  1  0.50000000  0.34382445  0.67727270  1
  Pt  Pt8  1  0.50000000  0.66653010  0.32273005  1
