# generated using pymatgen
data_RbInAg2
_symmetry_space_group_name_H-M   'P 1'
_cell_length_a   4.90893936
_cell_length_b   4.90893936
_cell_length_c   6.97731105
_cell_angle_alpha   69.40385065
_cell_angle_beta   69.40385065
_cell_angle_gamma   59.99999999
_symmetry_Int_Tables_number   1
_chemical_formula_structural   RbInAg2
_chemical_formula_sum   'Rb1 In1 Ag2'
_cell_volume   133.05704821
_cell_formula_units_Z   1
loop_
 _symmetry_equiv_pos_site_id
 _symmetry_equiv_pos_as_xyz
  1  'x, y, z'
loop_
 _atom_site_type_symbol
 _atom_site_label
 _atom_site_symmetry_multiplicity
 _atom_site_fract_x
 _atom_site_fract_y
 _atom_site_fract_z
 _atom_site_occupancy
  Rb  Rb0  1  0.50000000  0.50000000  0.50000000  1
  Ag  Ag1  1  0.31874164  0.31874164  0.04377608  1
  Ag  Ag2  1  0.68125836  0.68125836  0.95622392  1
  In  In3  1  0.00000000  0.00000000  0.00000000  1
