# generated using pymatgen
data_YHgPb
_symmetry_space_group_name_H-M   'P 1'
_cell_length_a   4.78758979
_cell_length_b   10.19014755
_cell_length_c   6.62671223
_cell_angle_alpha   90.00000000
_cell_angle_beta   90.00000000
_cell_angle_gamma   90.00000000
_symmetry_Int_Tables_number   1
_chemical_formula_structural   YHgPb
_chemical_formula_sum   'Y4 Hg4 Pb4'
_cell_volume   323.29241547
_cell_formula_units_Z   4
loop_
 _symmetry_equiv_pos_site_id
 _symmetry_equiv_pos_as_xyz
  1  'x, y, z'
loop_
 _atom_site_type_symbol
 _atom_site_label
 _atom_site_symmetry_multiplicity
 _atom_site_fract_x
 _atom_site_fract_y
 _atom_site_fract_z
 _atom_site_occupancy
  Y  Y0  1  0.25000000  0.09220426  0.81374627  1
  Y  Y1  1  0.75000000  0.90779574  0.18625373  1
  Y  Y2  1  0.25000000  0.40779574  0.31374627  1
  Y  Y3  1  0.75000000  0.59220426  0.68625373  1
  Hg  Hg4  1  0.75000000  0.58539176  0.18664693  1
  Hg  Hg5  1  0.25000000  0.41460824  0.81335307  1
  Hg  Hg6  1  0.75000000  0.91460824  0.68664693  1
  Hg  Hg7  1  0.25000000  0.08539176  0.31335307  1
  Pb  Pb8  1  0.75000000  0.25320369  0.04889453  1
  Pb  Pb9  1  0.25000000  0.74679631  0.95110547  1
  Pb  Pb10  1  0.75000000  0.24679631  0.54889453  1
  Pb  Pb11  1  0.25000000  0.75320369  0.45110547  1
