# generated using pymatgen
data_TeP2Cl
_symmetry_space_group_name_H-M   'P 1'
_cell_length_a   6.32649580
_cell_length_b   6.32649579
_cell_length_c   6.50823587
_cell_angle_alpha   89.20220580
_cell_angle_beta   89.20220582
_cell_angle_gamma   29.70346813
_symmetry_Int_Tables_number   1
_chemical_formula_structural   TeP2Cl
_chemical_formula_sum   'Te1 P2 Cl1'
_cell_volume   129.06193839
_cell_formula_units_Z   1
loop_
 _symmetry_equiv_pos_site_id
 _symmetry_equiv_pos_as_xyz
  1  'x, y, z'
loop_
 _atom_site_type_symbol
 _atom_site_label
 _atom_site_symmetry_multiplicity
 _atom_site_fract_x
 _atom_site_fract_y
 _atom_site_fract_z
 _atom_site_occupancy
  Cl  Cl0  1  0.25287857  0.25287857  0.15786021  1
  P  P1  1  0.11004790  0.11004790  0.98229209  1
  P  P2  1  0.66096408  0.66096408  0.75898180  1
  Te  Te3  1  0.47610945  0.47610945  0.60086591  1
