# generated using pymatgen
data_Rb3DyNp2O9
_symmetry_space_group_name_H-M   'P 1'
_cell_length_a   6.12791230
_cell_length_b   6.12791231
_cell_length_c   7.50604007
_cell_angle_alpha   90.00000000
_cell_angle_beta   90.00000000
_cell_angle_gamma   119.99999997
_symmetry_Int_Tables_number   1
_chemical_formula_structural   Rb3DyNp2O9
_chemical_formula_sum   'Rb3 Dy1 Np2 O9'
_cell_volume   244.09933326
_cell_formula_units_Z   1
loop_
 _symmetry_equiv_pos_site_id
 _symmetry_equiv_pos_as_xyz
  1  'x, y, z'
loop_
 _atom_site_type_symbol
 _atom_site_label
 _atom_site_symmetry_multiplicity
 _atom_site_fract_x
 _atom_site_fract_y
 _atom_site_fract_z
 _atom_site_occupancy
  Rb  Rb0  1  0.33333333  0.66666667  0.66316540  1
  Rb  Rb1  1  0.00000000  0.00000000  0.00000000  1
  Rb  Rb2  1  0.66666667  0.33333333  0.33683460  1
  Dy  Dy3  1  0.00000000  0.00000000  0.50000000  1
  Np  Np4  1  0.33333333  0.66666667  0.16645913  1
  Np  Np5  1  0.66666667  0.33333333  0.83354087  1
  O  O6  1  0.82406196  0.17593804  0.67864322  1
  O  O7  1  0.82406196  0.64812392  0.67864322  1
  O  O8  1  0.35187608  0.17593804  0.67864322  1
  O  O9  1  0.64812392  0.82406196  0.32135678  1
  O  O10  1  0.17593804  0.35187608  0.32135678  1
  O  O11  1  0.17593804  0.82406196  0.32135678  1
  O  O12  1  0.50000000  0.00000000  0.00000000  1
  O  O13  1  -0.00000000  0.50000000  0.00000000  1
  O  O14  1  0.50000000  0.50000000  0.00000000  1
