# generated using pymatgen
data_Sr2Ho(OsO4)3
_symmetry_space_group_name_H-M   'P 1'
_cell_length_a   6.72543390
_cell_length_b   6.72543390
_cell_length_c   6.72543389
_cell_angle_alpha   66.07500716
_cell_angle_beta   66.07500715
_cell_angle_gamma   66.07500718
_symmetry_Int_Tables_number   1
_chemical_formula_structural   Sr2Ho(OsO4)3
_chemical_formula_sum   'Sr2 Ho1 Os3 O12'
_cell_volume   243.36168690
_cell_formula_units_Z   1
loop_
 _symmetry_equiv_pos_site_id
 _symmetry_equiv_pos_as_xyz
  1  'x, y, z'
loop_
 _atom_site_type_symbol
 _atom_site_label
 _atom_site_symmetry_multiplicity
 _atom_site_fract_x
 _atom_site_fract_y
 _atom_site_fract_z
 _atom_site_occupancy
  Sr  Sr0  1  0.61711951  0.61711951  0.61711951  1
  Sr  Sr1  1  0.38288049  0.38288049  0.38288049  1
  Ho  Ho2  1  0.00000000  0.00000000  0.00000000  1
  Os  Os3  1  0.50000000  0.00000000  -0.00000000  1
  Os  Os4  1  0.00000000  0.50000000  0.00000000  1
  Os  Os5  1  -0.00000000  0.00000000  0.50000000  1
  O  O6  1  0.28212644  0.28212644  0.88485493  1
  O  O7  1  0.86414395  0.86414395  0.41222869  1
  O  O8  1  0.41222869  0.86414395  0.86414395  1
  O  O9  1  0.88485493  0.28212644  0.28212644  1
  O  O10  1  0.86414395  0.41222869  0.86414395  1
  O  O11  1  0.28212644  0.88485493  0.28212644  1
  O  O12  1  0.71787356  0.71787356  0.11514507  1
  O  O13  1  0.13585605  0.13585605  0.58777131  1
  O  O14  1  0.58777131  0.13585605  0.13585605  1
  O  O15  1  0.11514507  0.71787356  0.71787356  1
  O  O16  1  0.13585605  0.58777131  0.13585605  1
  O  O17  1  0.71787356  0.11514507  0.71787356  1
