# generated using pymatgen
data_Ca7(SnH)2
_symmetry_space_group_name_H-M   'P 1'
_cell_length_a   6.24280685
_cell_length_b   7.31240731
_cell_length_c   7.31240732
_cell_angle_alpha   93.43836290
_cell_angle_beta   99.35246554
_cell_angle_gamma   99.35246549
_symmetry_Int_Tables_number   1
_chemical_formula_structural   Ca7(SnH)2
_chemical_formula_sum   'Ca7 Sn2 H2'
_cell_volume   323.71372656
_cell_formula_units_Z   1
loop_
 _symmetry_equiv_pos_site_id
 _symmetry_equiv_pos_as_xyz
  1  'x, y, z'
loop_
 _atom_site_type_symbol
 _atom_site_label
 _atom_site_symmetry_multiplicity
 _atom_site_fract_x
 _atom_site_fract_y
 _atom_site_fract_z
 _atom_site_occupancy
  Ca  Ca0  1  0.71145263  0.85443230  0.51891992  1
  Ca  Ca1  1  0.28854737  0.48108008  0.14556770  1
  Ca  Ca2  1  0.28854737  0.14556770  0.48108008  1
  Ca  Ca3  1  0.71145263  0.51891992  0.85443230  1
  Ca  Ca4  1  0.50000000  -0.00000000  -0.00000000  1
  Ca  Ca5  1  0.20272518  0.64183114  0.64183114  1
  Ca  Ca6  1  0.79727482  0.35816886  0.35816886  1
  Sn  Sn7  1  0.00000000  0.21258942  0.78741058  1
  Sn  Sn8  1  1.00000000  0.78741058  0.21258942  1
  H  H9  1  0.46172701  0.22249168  0.22249168  1
  H  H10  1  0.53827299  0.77750832  0.77750832  1
