# generated using pymatgen
data_La2PrCuO5
_symmetry_space_group_name_H-M   'P 1'
_cell_length_a   5.89320408
_cell_length_b   6.68439741
_cell_length_c   6.68439741
_cell_angle_alpha   90.00000000
_cell_angle_beta   90.00000000
_cell_angle_gamma   90.00000000
_symmetry_Int_Tables_number   1
_chemical_formula_structural   La2PrCuO5
_chemical_formula_sum   'La4 Pr2 Cu2 O10'
_cell_volume   263.31524589
_cell_formula_units_Z   2
loop_
 _symmetry_equiv_pos_site_id
 _symmetry_equiv_pos_as_xyz
  1  'x, y, z'
loop_
 _atom_site_type_symbol
 _atom_site_label
 _atom_site_symmetry_multiplicity
 _atom_site_fract_x
 _atom_site_fract_y
 _atom_site_fract_z
 _atom_site_occupancy
  La  La0  1  0.50000000  0.66412689  0.16412689  1
  La  La1  1  0.50000000  0.16412689  0.33587311  1
  La  La2  1  0.50000000  0.83587311  0.66412689  1
  La  La3  1  0.50000000  0.33587311  0.83587311  1
  Pr  Pr4  1  0.00000000  0.50000000  0.50000000  1
  Pr  Pr5  1  0.00000000  0.00000000  0.00000000  1
  Cu  Cu6  1  0.00000000  0.00000000  0.50000000  1
  Cu  Cu7  1  0.00000000  0.50000000  0.00000000  1
  O  O8  1  0.50000000  0.50000000  0.50000000  1
  O  O9  1  0.50000000  0.00000000  0.00000000  1
  O  O10  1  0.22967858  0.16327697  0.66327697  1
  O  O11  1  0.22967858  0.83672303  0.33672303  1
  O  O12  1  0.22967858  0.33672303  0.16327697  1
  O  O13  1  0.22967858  0.66327697  0.83672303  1
  O  O14  1  0.77032142  0.16327697  0.66327697  1
  O  O15  1  0.77032142  0.66327697  0.83672303  1
  O  O16  1  0.77032142  0.83672303  0.33672303  1
  O  O17  1  0.77032142  0.33672303  0.16327697  1
