# generated using pymatgen
data_Si2Rh3
_symmetry_space_group_name_H-M   'P 1'
_cell_length_a   2.90641003
_cell_length_b   2.90641053
_cell_length_c   8.18610868
_cell_angle_alpha   100.22581794
_cell_angle_beta   100.22496255
_cell_angle_gamma   90.00000328
_symmetry_Int_Tables_number   1
_chemical_formula_structural   Si2Rh3
_chemical_formula_sum   'Si2 Rh3'
_cell_volume   66.93523810
_cell_formula_units_Z   1
loop_
 _symmetry_equiv_pos_site_id
 _symmetry_equiv_pos_as_xyz
  1  'x, y, z'
loop_
 _atom_site_type_symbol
 _atom_site_label
 _atom_site_symmetry_multiplicity
 _atom_site_fract_x
 _atom_site_fract_y
 _atom_site_fract_z
 _atom_site_occupancy
  Si  Si0  1  0.39813732  0.39814132  0.79627864  1
  Si  Si1  1  0.60186268  0.60185868  0.20372136  1
  Rh  Rh2  1  0.00000000  0.00000000  0.00000000  1
  Rh  Rh3  1  0.18227916  0.18227916  0.36455832  1
  Rh  Rh4  1  0.81772084  0.81772084  0.63544168  1
