# generated using pymatgen
data_Nb5Si3P
_symmetry_space_group_name_H-M   'P 1'
_cell_length_a   7.73850049
_cell_length_b   7.73850050
_cell_length_c   5.52232061
_cell_angle_alpha   90.00000000
_cell_angle_beta   90.00000000
_cell_angle_gamma   119.99999317
_symmetry_Int_Tables_number   1
_chemical_formula_structural   Nb5Si3P
_chemical_formula_sum   'Nb10 Si6 P2'
_cell_volume   286.39531404
_cell_formula_units_Z   2
loop_
 _symmetry_equiv_pos_site_id
 _symmetry_equiv_pos_as_xyz
  1  'x, y, z'
loop_
 _atom_site_type_symbol
 _atom_site_label
 _atom_site_symmetry_multiplicity
 _atom_site_fract_x
 _atom_site_fract_y
 _atom_site_fract_z
 _atom_site_occupancy
  Nb  Nb0  1  0.66666700  0.33333300  0.00000000  1
  Nb  Nb1  1  0.33333300  0.66666700  0.00000000  1
  Nb  Nb2  1  0.33333300  0.66666700  0.50000000  1
  Nb  Nb3  1  0.66666700  0.33333300  0.50000000  1
  Nb  Nb4  1  0.73837472  0.73837472  0.75000000  1
  Nb  Nb5  1  0.26162528  1.00000000  0.75000000  1
  Nb  Nb6  1  1.00000000  0.26162528  0.75000000  1
  Nb  Nb7  1  0.26162528  0.26162528  0.25000000  1
  Nb  Nb8  1  0.73837472  0.00000000  0.25000000  1
  Nb  Nb9  1  0.00000000  0.73837472  0.25000000  1
  Si  Si10  1  0.40039802  0.40039802  0.75000000  1
  Si  Si11  1  0.59960198  0.00000000  0.75000000  1
  Si  Si12  1  0.00000000  0.59960198  0.75000000  1
  Si  Si13  1  0.59960198  0.59960198  0.25000000  1
  Si  Si14  1  0.40039802  1.00000000  0.25000000  1
  Si  Si15  1  1.00000000  0.40039802  0.25000000  1
  P  P16  1  0.00000000  0.00000000  0.00000000  1
  P  P17  1  0.00000000  0.00000000  0.50000000  1
