# generated using pymatgen
data_Mg2CrPt2
_symmetry_space_group_name_H-M   'P 1'
_cell_length_a   6.45301883
_cell_length_b   6.45301883
_cell_length_c   4.09443238
_cell_angle_alpha   90.00000000
_cell_angle_beta   90.00000000
_cell_angle_gamma   90.00000000
_symmetry_Int_Tables_number   1
_chemical_formula_structural   Mg2CrPt2
_chemical_formula_sum   'Mg4 Cr2 Pt4'
_cell_volume   170.49810950
_cell_formula_units_Z   2
loop_
 _symmetry_equiv_pos_site_id
 _symmetry_equiv_pos_as_xyz
  1  'x, y, z'
loop_
 _atom_site_type_symbol
 _atom_site_label
 _atom_site_symmetry_multiplicity
 _atom_site_fract_x
 _atom_site_fract_y
 _atom_site_fract_z
 _atom_site_occupancy
  Cr  Cr0  1  0.00000000  0.00000000  0.00000000  1
  Cr  Cr1  1  0.50000000  0.50000000  0.00000000  1
  Mg  Mg2  1  0.16792971  0.66792971  0.50000000  1
  Mg  Mg3  1  0.66792971  0.83207029  0.50000000  1
  Mg  Mg4  1  0.83207029  0.33207029  0.50000000  1
  Mg  Mg5  1  0.33207029  0.16792971  0.50000000  1
  Pt  Pt6  1  0.35681597  0.85681597  0.00000000  1
  Pt  Pt7  1  0.85681597  0.64318403  0.00000000  1
  Pt  Pt8  1  0.64318403  0.14318403  0.00000000  1
  Pt  Pt9  1  0.14318403  0.35681597  0.00000000  1
