# generated using pymatgen
data_PmTm3S4
_symmetry_space_group_name_H-M   'P 1'
_cell_length_a   3.84328809
_cell_length_b   6.77027959
_cell_length_c   6.77028104
_cell_angle_alpha   108.84099148
_cell_angle_beta   90.00000000
_cell_angle_gamma   90.00000000
_symmetry_Int_Tables_number   1
_chemical_formula_structural   PmTm3S4
_chemical_formula_sum   'Pm1 Tm3 S4'
_cell_volume   166.72450721
_cell_formula_units_Z   1
loop_
 _symmetry_equiv_pos_site_id
 _symmetry_equiv_pos_as_xyz
  1  'x, y, z'
loop_
 _atom_site_type_symbol
 _atom_site_label
 _atom_site_symmetry_multiplicity
 _atom_site_fract_x
 _atom_site_fract_y
 _atom_site_fract_z
 _atom_site_occupancy
  S  S0  1  0.00000000  0.26209684  0.26209684  1
  S  S1  1  0.50000000  0.74417034  0.25582966  1
  S  S2  1  0.00000000  0.73790316  0.73790316  1
  S  S3  1  0.50000000  0.25582966  0.74417034  1
  Tm  Tm4  1  0.00000000  -0.00000000  0.50000000  1
  Tm  Tm5  1  0.50000000  0.50000000  0.50000000  1
  Tm  Tm6  1  0.00000000  0.50000000  0.00000000  1
  Pm  Pm7  1  0.50000000  0.00000000  0.00000000  1
