# generated using pymatgen
data_Nd2AlAgSe5
_symmetry_space_group_name_H-M   'P 1'
_cell_length_a   4.05287990
_cell_length_b   9.41012655
_cell_length_c   11.87134511
_cell_angle_alpha   90.00000000
_cell_angle_beta   90.00000000
_cell_angle_gamma   102.43586979
_symmetry_Int_Tables_number   1
_chemical_formula_structural   Nd2AlAgSe5
_chemical_formula_sum   'Nd4 Al2 Ag2 Se10'
_cell_volume   442.12810405
_cell_formula_units_Z   2
loop_
 _symmetry_equiv_pos_site_id
 _symmetry_equiv_pos_as_xyz
  1  'x, y, z'
loop_
 _atom_site_type_symbol
 _atom_site_label
 _atom_site_symmetry_multiplicity
 _atom_site_fract_x
 _atom_site_fract_y
 _atom_site_fract_z
 _atom_site_occupancy
  Nd  Nd0  1  0.87380387  0.74760775  0.79938220  1
  Nd  Nd1  1  0.11830862  0.23661725  0.68144658  1
  Nd  Nd2  1  0.12619613  0.25239225  0.29938220  1
  Nd  Nd3  1  0.88169138  0.76338275  0.18144658  1
  Al  Al4  1  0.57170625  0.14341250  0.95443254  1
  Al  Al5  1  0.42829375  0.85658750  0.45443254  1
  Ag  Ag6  1  0.77665355  0.55330710  0.52201419  1
  Ag  Ag7  1  0.22334645  0.44669290  0.02201419  1
  Se  Se8  1  0.36680109  0.73360218  0.99531993  1
  Se  Se9  1  0.68365715  0.36731430  0.85134312  1
  Se  Se10  1  0.50326350  0.00652700  0.77976053  1
  Se  Se11  1  0.29037838  0.58075676  0.67759959  1
  Se  Se12  1  0.95820451  0.91640902  0.56267131  1
  Se  Se13  1  0.63319891  0.26639782  0.49531993  1
  Se  Se14  1  0.31634285  0.63268570  0.35134312  1
  Se  Se15  1  0.49673650  0.99347300  0.27976053  1
  Se  Se16  1  0.70962162  0.41924324  0.17759959  1
  Se  Se17  1  0.04179549  0.08359098  0.06267131  1
