# generated using pymatgen
data_Sr2NbPdO6
_symmetry_space_group_name_H-M   'P 1'
_cell_length_a   5.71790643
_cell_length_b   5.71778600
_cell_length_c   8.25905581
_cell_angle_alpha   90.00000000
_cell_angle_beta   90.00000000
_cell_angle_gamma   90.00000000
_symmetry_Int_Tables_number   1
_chemical_formula_structural   Sr2NbPdO6
_chemical_formula_sum   'Sr4 Nb2 Pd2 O12'
_cell_volume   270.01963254
_cell_formula_units_Z   2
loop_
 _symmetry_equiv_pos_site_id
 _symmetry_equiv_pos_as_xyz
  1  'x, y, z'
loop_
 _atom_site_type_symbol
 _atom_site_label
 _atom_site_symmetry_multiplicity
 _atom_site_fract_x
 _atom_site_fract_y
 _atom_site_fract_z
 _atom_site_occupancy
  Sr  Sr0  1  0.50000000  0.75009004  0.24997651  1
  Sr  Sr1  1  0.00000000  0.24990996  0.74997651  1
  Sr  Sr2  1  0.50000000  0.75009004  0.75002349  1
  Sr  Sr3  1  0.00000000  0.24990996  0.25002349  1
  Nb  Nb4  1  0.50000000  0.24995121  0.50000000  1
  Nb  Nb5  1  0.00000000  0.75004879  0.00000000  1
  Pd  Pd6  1  0.00000000  0.74991187  0.50000000  1
  Pd  Pd7  1  0.50000000  0.25008813  0.00000000  1
  O  O8  1  0.50000000  0.24995589  0.25850035  1
  O  O9  1  0.50000000  0.24995589  0.74149965  1
  O  O10  1  0.00000000  0.75004411  0.24149965  1
  O  O11  1  0.00000000  0.75004411  0.75850035  1
  O  O12  1  0.25355680  0.00340781  0.50000000  1
  O  O13  1  0.74644320  0.00340781  0.50000000  1
  O  O14  1  0.25346941  0.49633757  0.50000000  1
  O  O15  1  0.74653059  0.49633757  0.50000000  1
  O  O16  1  0.75346941  0.50366243  0.00000000  1
  O  O17  1  0.24653059  0.50366243  0.00000000  1
  O  O18  1  0.24644320  0.99659219  0.00000000  1
  O  O19  1  0.75355680  0.99659219  0.00000000  1
