# generated using pymatgen
data_La3HoIn12
_symmetry_space_group_name_H-M   'P 1'
_cell_length_a   4.74798930
_cell_length_b   4.74799029
_cell_length_c   19.02172098
_cell_angle_alpha   90.00000000
_cell_angle_beta   90.00000000
_cell_angle_gamma   90.00000000
_symmetry_Int_Tables_number   1
_chemical_formula_structural   La3HoIn12
_chemical_formula_sum   'La3 Ho1 In12'
_cell_volume   428.81439967
_cell_formula_units_Z   1
loop_
 _symmetry_equiv_pos_site_id
 _symmetry_equiv_pos_as_xyz
  1  'x, y, z'
loop_
 _atom_site_type_symbol
 _atom_site_label
 _atom_site_symmetry_multiplicity
 _atom_site_fract_x
 _atom_site_fract_y
 _atom_site_fract_z
 _atom_site_occupancy
  La  La0  1  0.00000000  0.00000000  0.24495063  1
  La  La1  1  0.00000000  0.00000000  0.50000000  1
  La  La2  1  0.00000000  0.00000000  0.75504937  1
  Ho  Ho3  1  0.00000000  0.00000000  0.00000000  1
  In  In4  1  0.50000000  0.50000000  0.00000000  1
  In  In5  1  0.50000000  0.50000000  0.24875720  1
  In  In6  1  0.50000000  0.50000000  0.50000000  1
  In  In7  1  0.50000000  0.50000000  0.75124280  1
  In  In8  1  0.50000000  0.00000000  0.11922155  1
  In  In9  1  0.50000000  0.00000000  0.37282198  1
  In  In10  1  0.50000000  0.00000000  0.62717802  1
  In  In11  1  0.50000000  0.00000000  0.88077845  1
  In  In12  1  0.00000000  0.50000000  0.11922155  1
  In  In13  1  0.00000000  0.50000000  0.37282198  1
  In  In14  1  0.00000000  0.50000000  0.62717802  1
  In  In15  1  0.00000000  0.50000000  0.88077845  1
