# generated using pymatgen
data_Rb3Tb(TmSe3)2
_symmetry_space_group_name_H-M   'P 1'
_cell_length_a   7.29923340
_cell_length_b   7.29923340
_cell_length_c   8.35036153
_cell_angle_alpha   98.37997529
_cell_angle_beta   98.37997525
_cell_angle_gamma   119.99943665
_symmetry_Int_Tables_number   1
_chemical_formula_structural   Rb3Tb(TmSe3)2
_chemical_formula_sum   'Rb3 Tb1 Tm2 Se6'
_cell_volume   368.56481658
_cell_formula_units_Z   1
loop_
 _symmetry_equiv_pos_site_id
 _symmetry_equiv_pos_as_xyz
  1  'x, y, z'
loop_
 _atom_site_type_symbol
 _atom_site_label
 _atom_site_symmetry_multiplicity
 _atom_site_fract_x
 _atom_site_fract_y
 _atom_site_fract_z
 _atom_site_occupancy
  Rb  Rb0  1  0.16586216  0.83413784  0.50000000  1
  Rb  Rb1  1  0.83413784  0.16586216  0.50000000  1
  Rb  Rb2  1  0.50000000  0.50000000  0.50000000  1
  Tb  Tb3  1  0.00000000  0.00000000  0.00000000  1
  Tm  Tm4  1  0.33326235  0.66673765  0.00000000  1
  Tm  Tm5  1  0.66673765  0.33326235  0.00000000  1
  Se  Se6  1  0.93519324  0.59777689  0.80563931  1
  Se  Se7  1  0.72728658  0.72728658  0.19412115  1
  Se  Se8  1  0.06480676  0.40222311  0.19436069  1
  Se  Se9  1  0.59777689  0.93519324  0.80563931  1
  Se  Se10  1  0.27271342  0.27271342  0.80587885  1
  Se  Se11  1  0.40222311  0.06480676  0.19436069  1
