# generated using pymatgen
data_NpScSe2
_symmetry_space_group_name_H-M   'P 1'
_cell_length_a   3.94907510
_cell_length_b   3.94907510
_cell_length_c   7.00933656
_cell_angle_alpha   73.63824432
_cell_angle_beta   73.63824435
_cell_angle_gamma   60.00000001
_symmetry_Int_Tables_number   1
_chemical_formula_structural   NpScSe2
_chemical_formula_sum   'Np1 Sc1 Se2'
_cell_volume   89.51872475
_cell_formula_units_Z   1
loop_
 _symmetry_equiv_pos_site_id
 _symmetry_equiv_pos_as_xyz
  1  'x, y, z'
loop_
 _atom_site_type_symbol
 _atom_site_label
 _atom_site_symmetry_multiplicity
 _atom_site_fract_x
 _atom_site_fract_y
 _atom_site_fract_z
 _atom_site_occupancy
  Np  Np0  1  0.50000000  0.50000000  0.50000000  1
  Sc  Sc1  1  0.00000000  0.00000000  0.00000000  1
  Se  Se2  1  0.25636948  0.25636948  0.23089255  1
  Se  Se3  1  0.74363052  0.74363052  0.76910745  1
