# generated using pymatgen
data_SrNp2NbO8
_symmetry_space_group_name_H-M   'P 1'
_cell_length_a   5.07807258
_cell_length_b   5.07574456
_cell_length_c   6.96346912
_cell_angle_alpha   90.00193718
_cell_angle_beta   90.00178425
_cell_angle_gamma   88.52483220
_symmetry_Int_Tables_number   1
_chemical_formula_structural   SrNp2NbO8
_chemical_formula_sum   'Sr1 Np2 Nb1 O8'
_cell_volume   179.42392611
_cell_formula_units_Z   1
loop_
 _symmetry_equiv_pos_site_id
 _symmetry_equiv_pos_as_xyz
  1  'x, y, z'
loop_
 _atom_site_type_symbol
 _atom_site_label
 _atom_site_symmetry_multiplicity
 _atom_site_fract_x
 _atom_site_fract_y
 _atom_site_fract_z
 _atom_site_occupancy
  Sr  Sr0  1  -0.00000000  0.00000000  0.50000000  1
  Np  Np1  1  0.49999631  0.49999690  0.75664285  1
  Np  Np2  1  0.50000369  0.50000310  0.24335715  1
  Nb  Nb3  1  0.00000000  0.00000000  0.00000000  1
  O  O4  1  0.19756494  0.80243162  0.20768748  1
  O  O5  1  0.71031145  0.71020474  0.00001079  1
  O  O6  1  0.80245428  0.19758821  0.20768943  1
  O  O7  1  0.80243506  0.19756838  0.79231252  1
  O  O8  1  0.28968855  0.28979526  0.99998921  1
  O  O9  1  0.19754572  0.80241179  0.79231057  1
  O  O10  1  0.66912581  0.66966716  0.50000808  1
  O  O11  1  0.33087419  0.33033284  0.49999192  1
