# generated using pymatgen
data_CrHg2PdS
_symmetry_space_group_name_H-M   'P 1'
_cell_length_a   5.14269211
_cell_length_b   4.40376286
_cell_length_c   5.14269211
_cell_angle_alpha   90.00000000
_cell_angle_beta   90.00000000
_cell_angle_gamma   90.00000000
_symmetry_Int_Tables_number   1
_chemical_formula_structural   CrHg2PdS
_chemical_formula_sum   'Cr1 Hg2 Pd1 S1'
_cell_volume   116.46755883
_cell_formula_units_Z   1
loop_
 _symmetry_equiv_pos_site_id
 _symmetry_equiv_pos_as_xyz
  1  'x, y, z'
loop_
 _atom_site_type_symbol
 _atom_site_label
 _atom_site_symmetry_multiplicity
 _atom_site_fract_x
 _atom_site_fract_y
 _atom_site_fract_z
 _atom_site_occupancy
  Cr  Cr0  1  0.00000000  0.50000000  0.00000000  1
  S  S1  1  0.00000000  0.00000000  0.00000000  1
  Hg  Hg2  1  0.00000000  0.00000000  0.50000000  1
  Hg  Hg3  1  0.50000000  0.00000000  0.00000000  1
  Pd  Pd4  1  0.50000000  0.50000000  0.50000000  1
