# generated using pymatgen
data_YTe2P
_symmetry_space_group_name_H-M   'P 1'
_cell_length_a   9.47620015
_cell_length_b   9.47620015
_cell_length_c   9.47620015
_cell_angle_alpha   24.03459861
_cell_angle_beta   24.03459862
_cell_angle_gamma   24.03459862
_symmetry_Int_Tables_number   1
_chemical_formula_structural   YTe2P
_chemical_formula_sum   'Y1 Te2 P1'
_cell_volume   124.03821488
_cell_formula_units_Z   1
loop_
 _symmetry_equiv_pos_site_id
 _symmetry_equiv_pos_as_xyz
  1  'x, y, z'
loop_
 _atom_site_type_symbol
 _atom_site_label
 _atom_site_symmetry_multiplicity
 _atom_site_fract_x
 _atom_site_fract_y
 _atom_site_fract_z
 _atom_site_occupancy
  Y  Y0  1  0.00000000  0.00000000  0.00000000  1
  P  P1  1  0.50000000  0.50000000  0.50000000  1
  Te  Te2  1  0.89088948  0.89088948  0.89088948  1
  Te  Te3  1  0.10911052  0.10911052  0.10911052  1
