# generated using pymatgen
data_Na2BeO2
_symmetry_space_group_name_H-M   'P 1'
_cell_length_a   5.34556902
_cell_length_b   7.92429678
_cell_length_c   12.95325558
_cell_angle_alpha   62.15397949
_cell_angle_beta   90.00000000
_cell_angle_gamma   90.00000000
_symmetry_Int_Tables_number   1
_chemical_formula_structural   Na2BeO2
_chemical_formula_sum   'Na16 Be8 O16'
_cell_volume   485.16236823
_cell_formula_units_Z   8
loop_
 _symmetry_equiv_pos_site_id
 _symmetry_equiv_pos_as_xyz
  1  'x, y, z'
loop_
 _atom_site_type_symbol
 _atom_site_label
 _atom_site_symmetry_multiplicity
 _atom_site_fract_x
 _atom_site_fract_y
 _atom_site_fract_z
 _atom_site_occupancy
  Na  Na0  1  0.44425381  0.92437912  0.62522164  1
  Na  Na1  1  0.94425381  0.07562088  0.87477836  1
  Na  Na2  1  0.16721053  0.35413140  0.96695648  1
  Na  Na3  1  0.66721053  0.64586860  0.53304352  1
  Na  Na4  1  0.33278947  0.35413140  0.46695648  1
  Na  Na5  1  0.83278947  0.64586860  0.03304352  1
  Na  Na6  1  0.38559844  0.57995644  0.16738560  1
  Na  Na7  1  0.88559844  0.42004356  0.33261440  1
  Na  Na8  1  0.11440156  0.57995644  0.66738560  1
  Na  Na9  1  0.61440156  0.42004356  0.83261440  1
  Na  Na10  1  0.55574619  0.07562088  0.37477836  1
  Na  Na11  1  0.05574619  0.92437912  0.12522164  1
  Na  Na12  1  0.94091261  0.82802450  0.76328148  1
  Na  Na13  1  0.44091261  0.17197550  0.73671852  1
  Na  Na14  1  0.05908739  0.17197550  0.23671852  1
  Na  Na15  1  0.55908739  0.82802450  0.26328148  1
  Be  Be16  1  0.37941935  0.73821469  0.87816489  1
  Be  Be17  1  0.87941935  0.26178531  0.62183511  1
  Be  Be18  1  0.12058065  0.73821469  0.37816489  1
  Be  Be19  1  0.62058065  0.26178531  0.12183511  1
  Be  Be20  1  0.45708432  0.90906233  0.96187184  1
  Be  Be21  1  0.95708432  0.09093767  0.53812816  1
  Be  Be22  1  0.54291568  0.09093767  0.03812816  1
  Be  Be23  1  0.04291568  0.90906233  0.46187184  1
  O  O24  1  0.77280794  0.24796248  0.02104693  1
  O  O25  1  0.27280794  0.75203752  0.47895307  1
  O  O26  1  0.72719206  0.24796248  0.52104693  1
  O  O27  1  0.22719206  0.75203752  0.97895307  1
  O  O28  1  0.11261617  0.12924941  0.64072024  1
  O  O29  1  0.61261617  0.87075059  0.85927976  1
  O  O30  1  0.38738383  0.12924941  0.14072024  1
  O  O31  1  0.88738383  0.87075059  0.35927976  1
  O  O32  1  0.30317933  0.63767835  0.80714347  1
  O  O33  1  0.80317933  0.36232165  0.69285653  1
  O  O34  1  0.69682067  0.36232165  0.19285653  1
  O  O35  1  0.19682067  0.63767835  0.30714347  1
  O  O36  1  0.13366156  0.12898364  0.42407136  1
  O  O37  1  0.63366156  0.87101636  0.07592864  1
  O  O38  1  0.86633844  0.87101636  0.57592864  1
  O  O39  1  0.36633844  0.12898364  0.92407136  1
