# generated using pymatgen
data_MnTe2Au
_symmetry_space_group_name_H-M   'P 1'
_cell_length_a   4.02699057
_cell_length_b   6.93259035
_cell_length_c   8.46645958
_cell_angle_alpha   105.93222265
_cell_angle_beta   90.00000000
_cell_angle_gamma   90.00000000
_symmetry_Int_Tables_number   1
_chemical_formula_structural   MnTe2Au
_chemical_formula_sum   'Mn2 Te4 Au2'
_cell_volume   227.28282168
_cell_formula_units_Z   2
loop_
 _symmetry_equiv_pos_site_id
 _symmetry_equiv_pos_as_xyz
  1  'x, y, z'
loop_
 _atom_site_type_symbol
 _atom_site_label
 _atom_site_symmetry_multiplicity
 _atom_site_fract_x
 _atom_site_fract_y
 _atom_site_fract_z
 _atom_site_occupancy
  Mn  Mn0  1  0.25000000  0.75253374  0.48832173  1
  Mn  Mn1  1  0.75000000  0.24746626  0.51167827  1
  Te  Te2  1  0.75000000  0.86350140  0.30922724  1
  Te  Te3  1  0.25000000  0.34726445  0.32635136  1
  Te  Te4  1  0.75000000  0.65273555  0.67364864  1
  Te  Te5  1  0.25000000  0.13649860  0.69077276  1
  Au  Au6  1  0.25000000  0.16206647  0.00807435  1
  Au  Au7  1  0.75000000  0.83793353  0.99192565  1
