# generated using pymatgen
data_Sm2Mg2SnRh5
_symmetry_space_group_name_H-M   'P 1'
_cell_length_a   3.58072342
_cell_length_b   10.10257297
_cell_length_c   10.10257297
_cell_angle_alpha   90.00000000
_cell_angle_beta   90.00000000
_cell_angle_gamma   90.00000000
_symmetry_Int_Tables_number   1
_chemical_formula_structural   Sm2Mg2SnRh5
_chemical_formula_sum   'Sm4 Mg4 Sn2 Rh10'
_cell_volume   365.45572428
_cell_formula_units_Z   2
loop_
 _symmetry_equiv_pos_site_id
 _symmetry_equiv_pos_as_xyz
  1  'x, y, z'
loop_
 _atom_site_type_symbol
 _atom_site_label
 _atom_site_symmetry_multiplicity
 _atom_site_fract_x
 _atom_site_fract_y
 _atom_site_fract_z
 _atom_site_occupancy
  Sm  Sm0  1  0.00000000  0.67511540  0.17511540  1
  Sm  Sm1  1  0.00000000  0.32488460  0.82488460  1
  Sm  Sm2  1  0.00000000  0.17511540  0.32488460  1
  Sm  Sm3  1  0.00000000  0.82488460  0.67511540  1
  Mg  Mg4  1  0.00000000  0.12411088  0.62411088  1
  Mg  Mg5  1  0.00000000  0.87588912  0.37588912  1
  Mg  Mg6  1  0.00000000  0.62411088  0.87588912  1
  Mg  Mg7  1  0.00000000  0.37588912  0.12411088  1
  Sn  Sn8  1  0.00000000  0.00000000  0.00000000  1
  Sn  Sn9  1  0.00000000  0.50000000  0.50000000  1
  Rh  Rh10  1  0.50000000  0.20119152  0.06187298  1
  Rh  Rh11  1  0.50000000  0.79880848  0.93812702  1
  Rh  Rh12  1  0.50000000  0.06187298  0.79880848  1
  Rh  Rh13  1  0.50000000  0.70119152  0.43812702  1
  Rh  Rh14  1  0.50000000  0.93812702  0.20119152  1
  Rh  Rh15  1  0.50000000  0.29880848  0.56187298  1
  Rh  Rh16  1  0.50000000  0.56187298  0.70119152  1
  Rh  Rh17  1  0.50000000  0.43812702  0.29880848  1
  Rh  Rh18  1  0.50000000  0.50000000  0.00000000  1
  Rh  Rh19  1  0.50000000  0.00000000  0.50000000  1
