# generated using pymatgen
data_Nb3Fe(Se4S)2
_symmetry_space_group_name_H-M   'P 1'
_cell_length_a   3.50226983
_cell_length_b   9.96546202
_cell_length_c   10.03680368
_cell_angle_alpha   68.70633107
_cell_angle_beta   90.00000000
_cell_angle_gamma   90.00000000
_symmetry_Int_Tables_number   1
_chemical_formula_structural   Nb3Fe(Se4S)2
_chemical_formula_sum   'Nb3 Fe1 Se8 S2'
_cell_volume   326.38724908
_cell_formula_units_Z   1
loop_
 _symmetry_equiv_pos_site_id
 _symmetry_equiv_pos_as_xyz
  1  'x, y, z'
loop_
 _atom_site_type_symbol
 _atom_site_label
 _atom_site_symmetry_multiplicity
 _atom_site_fract_x
 _atom_site_fract_y
 _atom_site_fract_z
 _atom_site_occupancy
  Nb  Nb0  1  0.00000000  0.29281987  0.63356238  1
  Nb  Nb1  1  0.50000000  0.70684721  0.37670300  1
  Nb  Nb2  1  0.00000000  0.54146884  0.07772906  1
  Fe  Fe3  1  0.50000000  0.46045519  0.89788662  1
  Se  Se4  1  0.50000000  0.07967245  0.75375851  1
  Se  Se5  1  0.00000000  0.92089390  0.26036818  1
  Se  Se6  1  0.50000000  0.48656015  0.64577186  1
  Se  Se7  1  0.00000000  0.50947129  0.36802412  1
  Se  Se8  1  0.50000000  0.17919774  0.50158546  1
  Se  Se9  1  0.00000000  0.81666233  0.51324740  1
  Se  Se10  1  0.00000000  0.28171887  0.90917020  1
  Se  Se11  1  0.50000000  0.74117901  0.09078495  1
  S  S12  1  0.00000000  0.62367786  0.83105586  1
  S  S13  1  0.50000000  0.35937430  0.14034941  1
