# generated using pymatgen
data_Sn4Ru3
_symmetry_space_group_name_H-M   'P 1'
_cell_length_a   4.16188090
_cell_length_b   4.16187952
_cell_length_c   9.91763579
_cell_angle_alpha   77.87105972
_cell_angle_beta   77.87108740
_cell_angle_gamma   59.84412271
_symmetry_Int_Tables_number   1
_chemical_formula_structural   Sn4Ru3
_chemical_formula_sum   'Sn4 Ru3'
_cell_volume   144.10577348
_cell_formula_units_Z   1
loop_
 _symmetry_equiv_pos_site_id
 _symmetry_equiv_pos_as_xyz
  1  'x, y, z'
loop_
 _atom_site_type_symbol
 _atom_site_label
 _atom_site_symmetry_multiplicity
 _atom_site_fract_x
 _atom_site_fract_y
 _atom_site_fract_z
 _atom_site_occupancy
  Ru  Ru0  1  0.50000000  0.50000000  0.50000000  1
  Ru  Ru1  1  0.59456809  0.59456787  0.21630538  1
  Ru  Ru2  1  0.40543191  0.40543213  0.78369462  1
  Sn  Sn3  1  0.69688966  0.69688974  0.90831101  1
  Sn  Sn4  1  0.87867209  0.87867192  0.36252338  1
  Sn  Sn5  1  0.30311034  0.30311026  0.09168899  1
  Sn  Sn6  1  0.12132791  0.12132808  0.63747662  1
