# generated using pymatgen
data_Cs3VF6
_symmetry_space_group_name_H-M   'P 1'
_cell_length_a   6.77345200
_cell_length_b   6.85100444
_cell_length_c   9.60107245
_cell_angle_alpha   90.00000000
_cell_angle_beta   90.75081540
_cell_angle_gamma   90.00000000
_symmetry_Int_Tables_number   1
_chemical_formula_structural   Cs3VF6
_chemical_formula_sum   'Cs6 V2 F12'
_cell_volume   445.49903069
_cell_formula_units_Z   2
loop_
 _symmetry_equiv_pos_site_id
 _symmetry_equiv_pos_as_xyz
  1  'x, y, z'
loop_
 _atom_site_type_symbol
 _atom_site_label
 _atom_site_symmetry_multiplicity
 _atom_site_fract_x
 _atom_site_fract_y
 _atom_site_fract_z
 _atom_site_occupancy
  Cs  Cs0  1  0.50773229  0.97117386  0.74974519  1
  Cs  Cs1  1  0.50000000  0.50000000  -0.00000000  1
  Cs  Cs2  1  0.49226771  0.02882614  0.25025481  1
  Cs  Cs3  1  0.00773229  0.52882614  0.24974519  1
  Cs  Cs4  1  -0.00000000  0.00000000  0.50000000  1
  Cs  Cs5  1  0.99226771  0.47117386  0.75025481  1
  V  V6  1  0.50000000  0.50000000  0.50000000  1
  V  V7  1  0.00000000  0.00000000  0.00000000  1
  F  F8  1  0.76686998  0.17325567  0.97008079  1
  F  F9  1  0.66690262  0.26710847  0.54464414  1
  F  F10  1  0.56782382  0.47383347  0.29942347  1
  F  F11  1  0.43217618  0.52616653  0.70057653  1
  F  F12  1  0.33309738  0.73289153  0.45535586  1
  F  F13  1  0.23313002  0.82674433  0.02991921  1
  F  F14  1  0.26686998  0.32674433  0.47008079  1
  F  F15  1  0.16690262  0.23289153  0.04464414  1
  F  F16  1  0.06782382  0.02616653  0.79942347  1
  F  F17  1  0.93217618  0.97383347  0.20057653  1
  F  F18  1  0.83309738  0.76710847  0.95535586  1
  F  F19  1  0.73313002  0.67325567  0.52991921  1
