# generated using pymatgen
data_K(Na3Pb2)2
_symmetry_space_group_name_H-M   'P 1'
_cell_length_a   8.62228715
_cell_length_b   8.62228715
_cell_length_c   8.62228715
_cell_angle_alpha   83.84421821
_cell_angle_beta   123.61544402
_cell_angle_gamma   123.61544402
_symmetry_Int_Tables_number   1
_chemical_formula_structural   K(Na3Pb2)2
_chemical_formula_sum   'K1 Na6 Pb4'
_cell_volume   425.80460503
_cell_formula_units_Z   1
loop_
 _symmetry_equiv_pos_site_id
 _symmetry_equiv_pos_as_xyz
  1  'x, y, z'
loop_
 _atom_site_type_symbol
 _atom_site_label
 _atom_site_symmetry_multiplicity
 _atom_site_fract_x
 _atom_site_fract_y
 _atom_site_fract_z
 _atom_site_occupancy
  K  K0  1  0.00000000  0.00000000  0.00000000  1
  Na  Na1  1  -0.00000000  0.91146820  0.49692373  1
  Na  Na2  1  -0.00000000  0.49692373  0.91146820  1
  Na  Na3  1  0.58545553  0.08853180  0.08853180  1
  Na  Na4  1  0.50000000  -0.00000000  0.50000000  1
  Na  Na5  1  0.41454447  0.50307627  0.50307627  1
  Na  Na6  1  0.50000000  0.50000000  -0.00000000  1
  Pb  Pb7  1  1.00000000  0.27196514  0.56215427  1
  Pb  Pb8  1  0.70981088  0.43784573  0.43784573  1
  Pb  Pb9  1  1.00000000  0.56215427  0.27196514  1
  Pb  Pb10  1  0.29018912  0.72803486  0.72803486  1
