# generated using pymatgen
data_Tb(Zn2Ag)6
_symmetry_space_group_name_H-M   'P 1'
_cell_length_a   7.28773320
_cell_length_b   7.28773321
_cell_length_c   7.28773321
_cell_angle_alpha   104.68934421
_cell_angle_beta   104.68934415
_cell_angle_gamma   104.68934414
_symmetry_Int_Tables_number   1
_chemical_formula_structural   Tb(Zn2Ag)6
_chemical_formula_sum   'Tb1 Zn12 Ag6'
_cell_volume   340.63045048
_cell_formula_units_Z   1
loop_
 _symmetry_equiv_pos_site_id
 _symmetry_equiv_pos_as_xyz
  1  'x, y, z'
loop_
 _atom_site_type_symbol
 _atom_site_label
 _atom_site_symmetry_multiplicity
 _atom_site_fract_x
 _atom_site_fract_y
 _atom_site_fract_z
 _atom_site_occupancy
  Tb  Tb0  1  0.00000000  0.00000000  0.00000000  1
  Zn  Zn1  1  0.89191982  0.10808018  0.50000000  1
  Zn  Zn2  1  0.87407837  0.62863718  0.62863718  1
  Zn  Zn3  1  0.62863718  0.62863718  0.87407837  1
  Zn  Zn4  1  0.37136282  0.12592163  0.37136282  1
  Zn  Zn5  1  0.37136282  0.37136282  0.12592163  1
  Zn  Zn6  1  0.12592163  0.37136282  0.37136282  1
  Zn  Zn7  1  0.10808018  0.50000000  0.89191982  1
  Zn  Zn8  1  0.50000000  0.89191982  0.10808018  1
  Zn  Zn9  1  0.10808018  0.89191982  0.50000000  1
  Zn  Zn10  1  0.89191982  0.50000000  0.10808018  1
  Zn  Zn11  1  0.50000000  0.10808018  0.89191982  1
  Zn  Zn12  1  0.62863718  0.87407837  0.62863718  1
  Ag  Ag13  1  0.70981612  0.29559810  0.29559810  1
  Ag  Ag14  1  0.29559810  0.29559810  0.70981612  1
  Ag  Ag15  1  0.29559810  0.70981612  0.29559810  1
  Ag  Ag16  1  0.70440190  0.70440190  0.29018388  1
  Ag  Ag17  1  0.29018388  0.70440190  0.70440190  1
  Ag  Ag18  1  0.70440190  0.29018388  0.70440190  1
