# generated using pymatgen
data_Sr2BeHgPt
_symmetry_space_group_name_H-M   'P 1'
_cell_length_a   5.89273575
_cell_length_b   5.89273575
_cell_length_c   4.36893505
_cell_angle_alpha   90.00000000
_cell_angle_beta   90.00000000
_cell_angle_gamma   90.00000000
_symmetry_Int_Tables_number   1
_chemical_formula_structural   Sr2BeHgPt
_chemical_formula_sum   'Sr2 Be1 Hg1 Pt1'
_cell_volume   151.70836261
_cell_formula_units_Z   1
loop_
 _symmetry_equiv_pos_site_id
 _symmetry_equiv_pos_as_xyz
  1  'x, y, z'
loop_
 _atom_site_type_symbol
 _atom_site_label
 _atom_site_symmetry_multiplicity
 _atom_site_fract_x
 _atom_site_fract_y
 _atom_site_fract_z
 _atom_site_occupancy
  Sr  Sr0  1  0.00000000  0.50000000  0.00000000  1
  Sr  Sr1  1  0.50000000  0.00000000  0.00000000  1
  Hg  Hg2  1  0.50000000  0.50000000  0.50000000  1
  Pt  Pt3  1  0.00000000  0.00000000  0.00000000  1
  Be  Be4  1  0.00000000  0.00000000  0.50000000  1
