# generated using pymatgen
data_Li2Co3SnO8
_symmetry_space_group_name_H-M   'P 1'
_cell_length_a   8.28141799
_cell_length_b   8.28176115
_cell_length_c   8.28176115
_cell_angle_alpha   90.13260706
_cell_angle_beta   89.86765407
_cell_angle_gamma   89.86765409
_symmetry_Int_Tables_number   1
_chemical_formula_structural   Li2Co3SnO8
_chemical_formula_sum   'Li8 Co12 Sn4 O32'
_cell_volume   567.99775800
_cell_formula_units_Z   4
loop_
 _symmetry_equiv_pos_site_id
 _symmetry_equiv_pos_as_xyz
  1  'x, y, z'
loop_
 _atom_site_type_symbol
 _atom_site_label
 _atom_site_symmetry_multiplicity
 _atom_site_fract_x
 _atom_site_fract_y
 _atom_site_fract_z
 _atom_site_occupancy
  Li  Li0  1  0.12760975  0.74724187  0.99743649  1
  Li  Li1  1  0.87239025  0.00256351  0.25275813  1
  Li  Li2  1  0.37525273  0.50165723  0.25249512  1
  Li  Li3  1  0.12726842  0.24808535  0.50036280  1
  Li  Li4  1  0.62474727  0.74750488  0.49834277  1
  Li  Li5  1  0.87273158  0.49963720  0.75191465  1
  Li  Li6  1  0.37325267  0.00219800  0.74992045  1
  Li  Li7  1  0.62674733  0.25007955  0.99780200  1
  Co  Co8  1  0.98835752  0.37485351  0.11350865  1
  Co  Co9  1  0.74047279  0.61536440  0.12512371  1
  Co  Co10  1  0.50000000  0.86324385  0.13675615  1
  Co  Co11  1  0.75132108  0.36418107  0.36486829  1
  Co  Co12  1  0.51077268  0.11455853  0.37386910  1
  Co  Co13  1  0.25952721  0.87487629  0.38463560  1
  Co  Co14  1  0.76035040  0.12358590  0.61447701  1
  Co  Co15  1  0.01164248  0.88649135  0.62514649  1
  Co  Co16  1  0.24867892  0.63513171  0.63581893  1
  Co  Co17  1  0.00000000  0.13426823  0.86573177  1
  Co  Co18  1  0.23964960  0.38552299  0.87641410  1
  Co  Co19  1  0.48922732  0.62613090  0.88544147  1
  Sn  Sn20  1  0.24910712  0.12394513  0.12519051  1
  Sn  Sn21  1  0.00000000  0.62591266  0.37408734  1
  Sn  Sn22  1  0.50000000  0.37481558  0.62518442  1
  Sn  Sn23  1  0.75089288  0.87480949  0.87605487  1
  O  O24  1  0.99694104  0.14213735  0.10011036  1
  O  O25  1  0.22082587  0.37678241  0.11100200  1
  O  O26  1  0.50999518  0.63830601  0.11780013  1
  O  O27  1  0.97485522  0.60756876  0.12197626  1
  O  O28  1  0.73270457  0.84974452  0.12820463  1
  O  O29  1  0.76340656  0.38488571  0.13249467  1
  O  O30  1  0.50198035  0.09570185  0.13928871  1
  O  O31  1  0.26729543  0.87179537  0.15025548  1
  O  O32  1  0.98588218  0.37302089  0.34597794  1
  O  O33  1  0.75012517  0.59788934  0.35851851  1
  O  O34  1  0.49000482  0.88219987  0.36169399  1
  O  O35  1  0.51813688  0.34833653  0.37256787  1
  O  O36  1  0.27703320  0.10825937  0.37503397  1
  O  O37  1  0.73705380  0.13794751  0.38822125  1
  O  O38  1  0.02514478  0.87802374  0.39243124  1
  O  O39  1  0.24987483  0.64148149  0.40211066  1
  O  O40  1  0.75262438  0.35678052  0.59864005  1
  O  O41  1  0.52658894  0.12223886  0.60704795  1
  O  O42  1  0.23659344  0.86750533  0.61511429  1
  O  O43  1  0.77917413  0.88899800  0.62321759  1
  O  O44  1  0.01411782  0.65402206  0.62697911  1
  O  O45  1  0.99271633  0.11141626  0.63527757  1
  O  O46  1  0.24737562  0.40135995  0.64321948  1
  O  O47  1  0.48186312  0.62743213  0.65166347  1
  O  O48  1  0.76659873  0.12468523  0.84821445  1
  O  O49  1  0.00305896  0.89988964  0.85786265  1
  O  O50  1  0.26294620  0.61177875  0.86205249  1
  O  O51  1  0.23340127  0.15178555  0.87531477  1
  O  O52  1  0.47341106  0.39295205  0.87776114  1
  O  O53  1  0.00728367  0.36472243  0.88858374  1
  O  O54  1  0.72296680  0.62496603  0.89174063  1
  O  O55  1  0.49801965  0.86071129  0.90429815  1
