# generated using pymatgen
data_Cs2GeMoW
_symmetry_space_group_name_H-M   'P 1'
_cell_length_a   6.31585067
_cell_length_b   4.94007787
_cell_length_c   6.31585067
_cell_angle_alpha   90.00000000
_cell_angle_beta   90.00000000
_cell_angle_gamma   90.00000000
_symmetry_Int_Tables_number   1
_chemical_formula_structural   Cs2GeMoW
_chemical_formula_sum   'Cs2 Ge1 Mo1 W1'
_cell_volume   197.05955648
_cell_formula_units_Z   1
loop_
 _symmetry_equiv_pos_site_id
 _symmetry_equiv_pos_as_xyz
  1  'x, y, z'
loop_
 _atom_site_type_symbol
 _atom_site_label
 _atom_site_symmetry_multiplicity
 _atom_site_fract_x
 _atom_site_fract_y
 _atom_site_fract_z
 _atom_site_occupancy
  Cs  Cs0  1  0.00000000  0.00000000  0.50000000  1
  Cs  Cs1  1  0.50000000  0.00000000  0.00000000  1
  Mo  Mo2  1  0.50000000  0.50000000  0.50000000  1
  Ge  Ge3  1  0.00000000  0.50000000  0.00000000  1
  W  W4  1  0.00000000  0.00000000  0.00000000  1
