# generated using pymatgen
data_Dy2BiN
_symmetry_space_group_name_H-M   'P 1'
_cell_length_a   6.33343769
_cell_length_b   6.38034238
_cell_length_c   10.66016680
_cell_angle_alpha   97.72447091
_cell_angle_beta   90.00000000
_cell_angle_gamma   90.00000000
_symmetry_Int_Tables_number   1
_chemical_formula_structural   Dy2BiN
_chemical_formula_sum   'Dy8 Bi4 N4'
_cell_volume   426.86314441
_cell_formula_units_Z   4
loop_
 _symmetry_equiv_pos_site_id
 _symmetry_equiv_pos_as_xyz
  1  'x, y, z'
loop_
 _atom_site_type_symbol
 _atom_site_label
 _atom_site_symmetry_multiplicity
 _atom_site_fract_x
 _atom_site_fract_y
 _atom_site_fract_z
 _atom_site_occupancy
  Dy  Dy0  1  0.78920719  0.97849009  0.91516889  1
  Dy  Dy1  1  0.21079281  0.02150991  0.08483111  1
  Dy  Dy2  1  0.78920719  0.52150991  0.58483111  1
  Dy  Dy3  1  0.21079281  0.47849009  0.41516889  1
  Dy  Dy4  1  0.81251242  0.43938136  0.16495076  1
  Dy  Dy5  1  0.18748758  0.56061864  0.83504924  1
  Dy  Dy6  1  0.81251242  0.06061864  0.33504924  1
  Dy  Dy7  1  0.18748758  0.93938136  0.66495076  1
  Bi  Bi8  1  0.30019159  0.98154756  0.37495910  1
  Bi  Bi9  1  0.69980841  0.01845244  0.62504090  1
  Bi  Bi10  1  0.30019159  0.51845244  0.12504090  1
  Bi  Bi11  1  0.69980841  0.48154756  0.87495910  1
  N  N12  1  0.13013294  0.59557017  0.62236004  1
  N  N13  1  0.86986706  0.40442983  0.37763996  1
  N  N14  1  0.13013294  0.90442983  0.87763996  1
  N  N15  1  0.86986706  0.09557017  0.12236004  1
