# generated using pymatgen
data_YCo2TePt
_symmetry_space_group_name_H-M   'P 1'
_cell_length_a   4.71615277
_cell_length_b   5.16689982
_cell_length_c   4.71615277
_cell_angle_alpha   90.00000000
_cell_angle_beta   90.00000000
_cell_angle_gamma   90.00000000
_symmetry_Int_Tables_number   1
_chemical_formula_structural   YCo2TePt
_chemical_formula_sum   'Y1 Co2 Te1 Pt1'
_cell_volume   114.92268673
_cell_formula_units_Z   1
loop_
 _symmetry_equiv_pos_site_id
 _symmetry_equiv_pos_as_xyz
  1  'x, y, z'
loop_
 _atom_site_type_symbol
 _atom_site_label
 _atom_site_symmetry_multiplicity
 _atom_site_fract_x
 _atom_site_fract_y
 _atom_site_fract_z
 _atom_site_occupancy
  Y  Y0  1  0.00000000  0.00000000  0.00000000  1
  Te  Te1  1  0.50000000  0.50000000  0.50000000  1
  Co  Co2  1  0.00000000  0.00000000  0.50000000  1
  Co  Co3  1  0.50000000  0.00000000  0.00000000  1
  Pt  Pt4  1  0.00000000  0.50000000  0.00000000  1
