# generated using pymatgen
data_BaTl2Os
_symmetry_space_group_name_H-M   'P 1'
_cell_length_a   4.69955980
_cell_length_b   4.69955980
_cell_length_c   6.71739942
_cell_angle_alpha   69.49517878
_cell_angle_beta   69.49517880
_cell_angle_gamma   60.02885003
_symmetry_Int_Tables_number   1
_chemical_formula_structural   BaTl2Os
_chemical_formula_sum   'Ba1 Tl2 Os1'
_cell_volume   117.53490447
_cell_formula_units_Z   1
loop_
 _symmetry_equiv_pos_site_id
 _symmetry_equiv_pos_as_xyz
  1  'x, y, z'
loop_
 _atom_site_type_symbol
 _atom_site_label
 _atom_site_symmetry_multiplicity
 _atom_site_fract_x
 _atom_site_fract_y
 _atom_site_fract_z
 _atom_site_occupancy
  Tl  Tl0  1  0.96279602  0.96279602  0.11173368  1
  Tl  Tl1  1  0.53720398  0.53720398  0.38826632  1
  Os  Os2  1  0.25000000  0.25000000  0.25000000  1
  Ba  Ba3  1  0.75000000  0.75000000  0.75000000  1
