# generated using pymatgen
data_Be2FeP
_symmetry_space_group_name_H-M   'P 1'
_cell_length_a   4.21030421
_cell_length_b   4.21030420
_cell_length_c   4.21030421
_cell_angle_alpha   134.82320290
_cell_angle_beta   134.82320303
_cell_angle_gamma   65.80504828
_symmetry_Int_Tables_number   1
_chemical_formula_structural   Be2FeP
_chemical_formula_sum   'Be2 Fe1 P1'
_cell_volume   36.98097095
_cell_formula_units_Z   1
loop_
 _symmetry_equiv_pos_site_id
 _symmetry_equiv_pos_as_xyz
  1  'x, y, z'
loop_
 _atom_site_type_symbol
 _atom_site_label
 _atom_site_symmetry_multiplicity
 _atom_site_fract_x
 _atom_site_fract_y
 _atom_site_fract_z
 _atom_site_occupancy
  P  P0  1  0.75000000  0.25000000  0.50000000  1
  Fe  Fe1  1  0.25000000  0.75000000  0.50000000  1
  Be  Be2  1  0.00000000  0.00000000  0.00000000  1
  Be  Be3  1  0.50000000  0.50000000  0.00000000  1
