# generated using pymatgen
data_Cs2Tl12AgPt3
_symmetry_space_group_name_H-M   'P 1'
_cell_length_a   9.02439744
_cell_length_b   9.02439744
_cell_length_c   9.02439743
_cell_angle_alpha   72.64494722
_cell_angle_beta   72.64494719
_cell_angle_gamma   72.64494718
_symmetry_Int_Tables_number   1
_chemical_formula_structural   Cs2Tl12AgPt3
_chemical_formula_sum   'Cs2 Tl12 Ag1 Pt3'
_cell_volume   651.63876618
_cell_formula_units_Z   1
loop_
 _symmetry_equiv_pos_site_id
 _symmetry_equiv_pos_as_xyz
  1  'x, y, z'
loop_
 _atom_site_type_symbol
 _atom_site_label
 _atom_site_symmetry_multiplicity
 _atom_site_fract_x
 _atom_site_fract_y
 _atom_site_fract_z
 _atom_site_occupancy
  Cs  Cs0  1  0.59981375  0.59981375  0.59981375  1
  Cs  Cs1  1  0.40018625  0.40018625  0.40018625  1
  Tl  Tl2  1  0.27047134  0.27047134  0.91617265  1
  Tl  Tl3  1  0.86268899  0.86268899  0.35364012  1
  Tl  Tl4  1  0.35364012  0.86268899  0.86268899  1
  Tl  Tl5  1  0.91617265  0.27047134  0.27047134  1
  Tl  Tl6  1  0.86268899  0.35364012  0.86268899  1
  Tl  Tl7  1  0.27047134  0.91617265  0.27047134  1
  Tl  Tl8  1  0.72952866  0.72952866  0.08382735  1
  Tl  Tl9  1  0.13731101  0.13731101  0.64635988  1
  Tl  Tl10  1  0.64635988  0.13731101  0.13731101  1
  Tl  Tl11  1  0.08382735  0.72952866  0.72952866  1
  Tl  Tl12  1  0.13731101  0.64635988  0.13731101  1
  Tl  Tl13  1  0.72952866  0.08382735  0.72952866  1
  Ag  Ag14  1  0.00000000  0.00000000  0.00000000  1
  Pt  Pt15  1  0.50000000  -0.00000000  0.00000000  1
  Pt  Pt16  1  -0.00000000  0.50000000  -0.00000000  1
  Pt  Pt17  1  0.00000000  -0.00000000  0.50000000  1
