# generated using pymatgen
data_RbZrGa
_symmetry_space_group_name_H-M   'P 1'
_cell_length_a   4.63513625
_cell_length_b   13.56568275
_cell_length_c   4.64125810
_cell_angle_alpha   90.22026860
_cell_angle_beta   119.95447682
_cell_angle_gamma   110.06345104
_symmetry_Int_Tables_number   1
_chemical_formula_structural   RbZrGa
_chemical_formula_sum   'Rb2 Zr2 Ga2'
_cell_volume   231.94414767
_cell_formula_units_Z   2
loop_
 _symmetry_equiv_pos_site_id
 _symmetry_equiv_pos_as_xyz
  1  'x, y, z'
loop_
 _atom_site_type_symbol
 _atom_site_label
 _atom_site_symmetry_multiplicity
 _atom_site_fract_x
 _atom_site_fract_y
 _atom_site_fract_z
 _atom_site_occupancy
  Zr  Zr0  1  0.70878441  0.95409198  0.85789090  1
  Zr  Zr1  1  0.18665660  0.81404682  0.09491294  1
  Ga  Ga2  1  0.48365074  0.03434602  0.24650538  1
  Ga  Ga3  1  0.90858701  0.85495903  0.45661833  1
  Rb  Rb4  1  0.20712146  0.58190044  0.60128252  1
  Rb  Rb5  1  0.41450738  0.23057384  0.71400496  1
