# generated using pymatgen
data_Nd2PuMnN5
_symmetry_space_group_name_H-M   'P 1'
_cell_length_a   3.45086965
_cell_length_b   7.13102087
_cell_length_c   10.39173769
_cell_angle_alpha   90.00000000
_cell_angle_beta   90.00000000
_cell_angle_gamma   104.00235780
_symmetry_Int_Tables_number   1
_chemical_formula_structural   Nd2PuMnN5
_chemical_formula_sum   'Nd4 Pu2 Mn2 N10'
_cell_volume   248.12361534
_cell_formula_units_Z   2
loop_
 _symmetry_equiv_pos_site_id
 _symmetry_equiv_pos_as_xyz
  1  'x, y, z'
loop_
 _atom_site_type_symbol
 _atom_site_label
 _atom_site_symmetry_multiplicity
 _atom_site_fract_x
 _atom_site_fract_y
 _atom_site_fract_z
 _atom_site_occupancy
  Nd  Nd0  1  0.86579633  0.73159265  0.80237480  1
  Nd  Nd1  1  0.10857080  0.21714160  0.69302786  1
  Nd  Nd2  1  0.13420367  0.26840735  0.30237480  1
  Nd  Nd3  1  0.89142920  0.78285840  0.19302786  1
  Pu  Pu4  1  0.79436388  0.58872776  0.50749997  1
  Pu  Pu5  1  0.20563612  0.41127224  0.00749997  1
  Mn  Mn6  1  0.50795091  0.01590182  0.96692259  1
  Mn  Mn7  1  0.49204909  0.98409818  0.46692259  1
  N  N8  1  0.37463837  0.74927674  0.00690160  1
  N  N9  1  0.68865019  0.37730039  0.87799418  1
  N  N10  1  0.49178215  0.98356430  0.79229786  1
  N  N11  1  0.28565239  0.57130479  0.64376988  1
  N  N12  1  0.95794537  0.91589073  0.53318126  1
  N  N13  1  0.62536163  0.25072326  0.50690160  1
  N  N14  1  0.31134981  0.62269961  0.37799418  1
  N  N15  1  0.50821785  0.01643570  0.29229786  1
  N  N16  1  0.71434761  0.42869521  0.14376988  1
  N  N17  1  0.04205463  0.08410927  0.03318126  1
