# generated using pymatgen
data_CoGePd
_symmetry_space_group_name_H-M   'P 1'
_cell_length_a   3.94386867
_cell_length_b   5.33959884
_cell_length_c   7.72585550
_cell_angle_alpha   90.00000000
_cell_angle_beta   90.00000000
_cell_angle_gamma   90.00000000
_symmetry_Int_Tables_number   1
_chemical_formula_structural   CoGePd
_chemical_formula_sum   'Co4 Ge4 Pd4'
_cell_volume   162.69629224
_cell_formula_units_Z   4
loop_
 _symmetry_equiv_pos_site_id
 _symmetry_equiv_pos_as_xyz
  1  'x, y, z'
loop_
 _atom_site_type_symbol
 _atom_site_label
 _atom_site_symmetry_multiplicity
 _atom_site_fract_x
 _atom_site_fract_y
 _atom_site_fract_z
 _atom_site_occupancy
  Ge  Ge0  1  0.25000000  0.18785905  0.88814692  1
  Ge  Ge1  1  0.75000000  0.81214095  0.11185308  1
  Ge  Ge2  1  0.25000000  0.68785905  0.61185308  1
  Ge  Ge3  1  0.75000000  0.31214095  0.38814692  1
  Co  Co4  1  0.25000000  0.53832274  0.29751799  1
  Co  Co5  1  0.75000000  0.46167726  0.70248201  1
  Co  Co6  1  0.25000000  0.03832274  0.20248201  1
  Co  Co7  1  0.75000000  0.96167726  0.79751799  1
  Pd  Pd8  1  0.75000000  0.83418528  0.43507190  1
  Pd  Pd9  1  0.25000000  0.16581472  0.56492810  1
  Pd  Pd10  1  0.75000000  0.33418528  0.06492810  1
  Pd  Pd11  1  0.25000000  0.66581472  0.93507190  1
