# generated using pymatgen
data_Y2MoP2
_symmetry_space_group_name_H-M   'P 1'
_cell_length_a   5.30324615
_cell_length_b   5.30324615
_cell_length_c   5.30324615
_cell_angle_alpha   116.58207157
_cell_angle_beta   116.58207157
_cell_angle_gamma   96.02955456
_symmetry_Int_Tables_number   1
_chemical_formula_structural   Y2MoP2
_chemical_formula_sum   'Y2 Mo1 P2'
_cell_volume   110.25299271
_cell_formula_units_Z   1
loop_
 _symmetry_equiv_pos_site_id
 _symmetry_equiv_pos_as_xyz
  1  'x, y, z'
loop_
 _atom_site_type_symbol
 _atom_site_label
 _atom_site_symmetry_multiplicity
 _atom_site_fract_x
 _atom_site_fract_y
 _atom_site_fract_z
 _atom_site_occupancy
  Y  Y0  1  0.25000000  0.75000000  0.50000000  1
  Y  Y1  1  0.75000000  0.25000000  0.50000000  1
  Mo  Mo2  1  0.00000000  0.00000000  0.00000000  1
  P  P3  1  0.67022907  0.67022907  0.00000000  1
  P  P4  1  0.32977093  0.32977093  0.00000000  1
