# generated using pymatgen
data_CaPu2Te4Pb
_symmetry_space_group_name_H-M   'P 1'
_cell_length_a   4.52309036
_cell_length_b   7.89972644
_cell_length_c   7.89316388
_cell_angle_alpha   70.41372523
_cell_angle_beta   89.99974457
_cell_angle_gamma   89.99971179
_symmetry_Int_Tables_number   1
_chemical_formula_structural   CaPu2Te4Pb
_chemical_formula_sum   'Ca1 Pu2 Te4 Pb1'
_cell_volume   265.71303329
_cell_formula_units_Z   1
loop_
 _symmetry_equiv_pos_site_id
 _symmetry_equiv_pos_as_xyz
  1  'x, y, z'
loop_
 _atom_site_type_symbol
 _atom_site_label
 _atom_site_symmetry_multiplicity
 _atom_site_fract_x
 _atom_site_fract_y
 _atom_site_fract_z
 _atom_site_occupancy
  Ca  Ca0  1  0.00000050  0.49999400  0.50000450  1
  Pu  Pu1  1  0.00000000  0.00000100  0.99999900  1
  Pu  Pu2  1  0.50000000  0.00000100  0.49999900  1
  Te  Te3  1  0.00000300  0.75835189  0.74190476  1
  Te  Te4  1  0.99999600  0.24164961  0.25809374  1
  Te  Te5  1  0.50000200  0.75384618  0.25250493  1
  Te  Te6  1  0.49999700  0.24615482  0.74749407  1
  Pb  Pb7  1  0.49999900  0.50000150  0.99999950  1
