# generated using pymatgen
data_Li4Tb3TmS8
_symmetry_space_group_name_H-M   'P 1'
_cell_length_a   7.82938148
_cell_length_b   7.65600554
_cell_length_c   7.82799551
_cell_angle_alpha   120.77820956
_cell_angle_beta   120.00585703
_cell_angle_gamma   90.00000000
_symmetry_Int_Tables_number   1
_chemical_formula_structural   Li4Tb3TmS8
_chemical_formula_sum   'Li4 Tb3 Tm1 S8'
_cell_volume   327.80532117
_cell_formula_units_Z   1
loop_
 _symmetry_equiv_pos_site_id
 _symmetry_equiv_pos_as_xyz
  1  'x, y, z'
loop_
 _atom_site_type_symbol
 _atom_site_label
 _atom_site_symmetry_multiplicity
 _atom_site_fract_x
 _atom_site_fract_y
 _atom_site_fract_z
 _atom_site_occupancy
  Li  Li0  1  0.50000000  0.00000000  0.00000000  1
  Li  Li1  1  0.50000000  0.00000000  0.50000000  1
  Li  Li2  1  0.00000000  0.00000000  0.00000000  1
  Li  Li3  1  0.00000000  0.00000000  0.50000000  1
  Tb  Tb4  1  0.50000000  0.50000000  -0.00000000  1
  Tb  Tb5  1  0.50000000  0.50000000  0.50000000  1
  Tb  Tb6  1  0.00000000  0.50000000  0.50000000  1
  Tm  Tm7  1  -0.00000000  0.50000000  -0.00000000  1
  S  S8  1  0.24804461  0.74990849  0.00217240  1
  S  S9  1  0.24805988  0.74992544  0.49611977  1
  S  S10  1  0.24929021  0.24818413  0.49858043  1
  S  S11  1  0.75412779  0.74990849  0.00217240  1
  S  S12  1  0.24587221  0.25009151  0.99782760  1
  S  S13  1  0.75070979  0.75181587  0.50141957  1
  S  S14  1  0.75194012  0.25007456  0.50388023  1
  S  S15  1  0.75195539  0.25009151  0.99782760  1
