# generated using pymatgen
data_Nb6Ga2B
_symmetry_space_group_name_H-M   'P 1'
_cell_length_a   5.38888718
_cell_length_b   6.76832823
_cell_length_c   8.29520900
_cell_angle_alpha   90.00000000
_cell_angle_beta   90.65838821
_cell_angle_gamma   90.00000000
_symmetry_Int_Tables_number   1
_chemical_formula_structural   Nb6Ga2B
_chemical_formula_sum   'Nb12 Ga4 B2'
_cell_volume   302.53746362
_cell_formula_units_Z   2
loop_
 _symmetry_equiv_pos_site_id
 _symmetry_equiv_pos_as_xyz
  1  'x, y, z'
loop_
 _atom_site_type_symbol
 _atom_site_label
 _atom_site_symmetry_multiplicity
 _atom_site_fract_x
 _atom_site_fract_y
 _atom_site_fract_z
 _atom_site_occupancy
  Nb  Nb0  1  0.90276419  0.99093320  0.22779127  1
  Nb  Nb1  1  0.85475705  0.68937081  0.55193735  1
  Nb  Nb2  1  0.85476881  0.67141324  0.95228990  1
  Nb  Nb3  1  0.64523119  0.17141324  0.54771010  1
  Nb  Nb4  1  0.64524295  0.18937081  0.94806265  1
  Nb  Nb5  1  0.59723581  0.49093320  0.27220873  1
  Nb  Nb6  1  0.09723581  0.00906680  0.77220873  1
  Nb  Nb7  1  0.14524295  0.31062919  0.44806265  1
  Nb  Nb8  1  0.14523119  0.32858676  0.04771010  1
  Nb  Nb9  1  0.35476881  0.82858676  0.45228990  1
  Nb  Nb10  1  0.35475705  0.81062919  0.05193735  1
  Nb  Nb11  1  0.40276419  0.50906680  0.72779127  1
  Ga  Ga12  1  0.92956229  0.38485405  0.74439843  1
  Ga  Ga13  1  0.57043771  0.88485405  0.75560157  1
  Ga  Ga14  1  0.42956229  0.11514595  0.24439843  1
  Ga  Ga15  1  0.07043771  0.61514595  0.25560157  1
  B  B16  1  0.50000000  0.50000000  -0.00000000  1
  B  B17  1  -0.00000000  0.00000000  0.50000000  1
