# generated using pymatgen
data_Lu2USe
_symmetry_space_group_name_H-M   'P 1'
_cell_length_a   3.47415008
_cell_length_b   3.47415008
_cell_length_c   10.50955730
_cell_angle_alpha   80.48619310
_cell_angle_beta   80.48619308
_cell_angle_gamma   60.00000003
_symmetry_Int_Tables_number   1
_chemical_formula_structural   Lu2USe
_chemical_formula_sum   'Lu2 U1 Se1'
_cell_volume   107.83377921
_cell_formula_units_Z   1
loop_
 _symmetry_equiv_pos_site_id
 _symmetry_equiv_pos_as_xyz
  1  'x, y, z'
loop_
 _atom_site_type_symbol
 _atom_site_label
 _atom_site_symmetry_multiplicity
 _atom_site_fract_x
 _atom_site_fract_y
 _atom_site_fract_z
 _atom_site_occupancy
  Lu  Lu0  1  0.10483903  0.10483903  0.68548390  1
  Lu  Lu1  1  0.89516097  0.89516097  0.31451610  1
  U  U2  1  0.00000000  0.00000000  0.00000000  1
  Se  Se3  1  0.50000000  0.50000000  0.50000000  1
