# generated using pymatgen
data_La3Ce2ErAs6
_symmetry_space_group_name_H-M   'P 1'
_cell_length_a   7.39532004
_cell_length_b   7.39532004
_cell_length_c   7.41635483
_cell_angle_alpha   99.57104217
_cell_angle_beta   99.57104218
_cell_angle_gamma   119.99617940
_symmetry_Int_Tables_number   1
_chemical_formula_structural   La3Ce2ErAs6
_chemical_formula_sum   'La3 Ce2 Er1 As6'
_cell_volume   331.28939734
_cell_formula_units_Z   1
loop_
 _symmetry_equiv_pos_site_id
 _symmetry_equiv_pos_as_xyz
  1  'x, y, z'
loop_
 _atom_site_type_symbol
 _atom_site_label
 _atom_site_symmetry_multiplicity
 _atom_site_fract_x
 _atom_site_fract_y
 _atom_site_fract_z
 _atom_site_occupancy
  La  La0  1  0.16723521  0.83276479  0.50000000  1
  La  La1  1  0.83276479  0.16723521  0.50000000  1
  La  La2  1  0.50000000  0.50000000  0.50000000  1
  Ce  Ce3  1  0.33350610  0.66649390  0.00000000  1
  Ce  Ce4  1  0.66649390  0.33350610  0.00000000  1
  Er  Er5  1  0.00000000  0.00000000  0.00000000  1
  As  As6  1  0.92112106  0.59024288  0.76316163  1
  As  As7  1  0.74863499  0.74863499  0.23810323  1
  As  As8  1  0.07887894  0.40975712  0.23683837  1
  As  As9  1  0.59024288  0.92112106  0.76316163  1
  As  As10  1  0.25136501  0.25136501  0.76189677  1
  As  As11  1  0.40975712  0.07887894  0.23683837  1
