# generated using pymatgen
data_Sr2CrIr
_symmetry_space_group_name_H-M   'P 1'
_cell_length_a   11.29044418
_cell_length_b   11.29044418
_cell_length_c   8.32808093
_cell_angle_alpha   47.32383447
_cell_angle_beta   47.32383447
_cell_angle_gamma   90.00000000
_symmetry_Int_Tables_number   1
_chemical_formula_structural   Sr2CrIr
_chemical_formula_sum   'Sr4 Cr2 Ir2'
_cell_volume   302.19347237
_cell_formula_units_Z   2
loop_
 _symmetry_equiv_pos_site_id
 _symmetry_equiv_pos_as_xyz
  1  'x, y, z'
loop_
 _atom_site_type_symbol
 _atom_site_label
 _atom_site_symmetry_multiplicity
 _atom_site_fract_x
 _atom_site_fract_y
 _atom_site_fract_z
 _atom_site_occupancy
  Sr  Sr0  1  0.80059448  0.12500000  0.25000000  1
  Sr  Sr1  1  0.94940552  0.62500000  0.25000000  1
  Sr  Sr2  1  0.37500000  0.19940552  0.75000000  1
  Sr  Sr3  1  0.87500000  0.05059448  0.75000000  1
  Ir  Ir4  1  0.00000000  0.00000000  0.00000000  1
  Ir  Ir5  1  0.75000000  0.25000000  0.50000000  1
  Cr  Cr6  1  0.50000000  0.50000000  0.00000000  1
  Cr  Cr7  1  0.25000000  0.75000000  0.50000000  1
