# generated using pymatgen
data_Pr(Ga3Pd)4
_symmetry_space_group_name_H-M   'P 1'
_cell_length_a   7.64610450
_cell_length_b   7.64610450
_cell_length_c   7.64610450
_cell_angle_alpha   109.47122066
_cell_angle_beta   109.47122064
_cell_angle_gamma   109.47122062
_symmetry_Int_Tables_number   1
_chemical_formula_structural   Pr(Ga3Pd)4
_chemical_formula_sum   'Pr1 Ga12 Pd4'
_cell_volume   344.11119136
_cell_formula_units_Z   1
loop_
 _symmetry_equiv_pos_site_id
 _symmetry_equiv_pos_as_xyz
  1  'x, y, z'
loop_
 _atom_site_type_symbol
 _atom_site_label
 _atom_site_symmetry_multiplicity
 _atom_site_fract_x
 _atom_site_fract_y
 _atom_site_fract_z
 _atom_site_occupancy
  Pr  Pr0  1  0.00000000  0.00000000  0.00000000  1
  Ga  Ga1  1  0.84713467  0.34847134  0.19560501  1
  Ga  Ga2  1  0.34847034  0.50133668  0.15286533  1
  Ga  Ga3  1  0.80439499  0.15286533  0.65152866  1
  Ga  Ga4  1  0.34847134  0.19560501  0.84713467  1
  Ga  Ga5  1  0.19560501  0.84713467  0.34847134  1
  Ga  Ga6  1  0.65152966  0.49866332  0.84713467  1
  Ga  Ga7  1  0.50133668  0.15286633  0.34847034  1
  Ga  Ga8  1  0.49866332  0.84713367  0.65152966  1
  Ga  Ga9  1  0.65152866  0.80439499  0.15286533  1
  Ga  Ga10  1  0.84713367  0.65152866  0.49866332  1
  Ga  Ga11  1  0.15286633  0.34847134  0.50133768  1
  Ga  Ga12  1  0.15286633  0.65152966  0.80439599  1
  Pd  Pd13  1  0.00000000  0.50000000  0.00000000  1
  Pd  Pd14  1  0.50000000  0.00000000  0.00000000  1
  Pd  Pd15  1  0.50000000  0.50000000  0.50000000  1
  Pd  Pd16  1  0.00000000  0.00000000  0.50000000  1
