# generated using pymatgen
data_PrFe2PO8
_symmetry_space_group_name_H-M   'P 1'
_cell_length_a   5.22511575
_cell_length_b   5.22511575
_cell_length_c   6.07648466
_cell_angle_alpha   90.00000000
_cell_angle_beta   90.00000000
_cell_angle_gamma   120.00000003
_symmetry_Int_Tables_number   1
_chemical_formula_structural   PrFe2PO8
_chemical_formula_sum   'Pr1 Fe2 P1 O8'
_cell_volume   143.67290369
_cell_formula_units_Z   1
loop_
 _symmetry_equiv_pos_site_id
 _symmetry_equiv_pos_as_xyz
  1  'x, y, z'
loop_
 _atom_site_type_symbol
 _atom_site_label
 _atom_site_symmetry_multiplicity
 _atom_site_fract_x
 _atom_site_fract_y
 _atom_site_fract_z
 _atom_site_occupancy
  Pr  Pr0  1  0.00000000  0.00000000  0.50000000  1
  Fe  Fe1  1  0.66666667  0.33333333  0.04143672  1
  Fe  Fe2  1  0.33333333  0.66666667  0.95856328  1
  P  P3  1  0.00000000  0.00000000  0.00000000  1
  O  O4  1  0.84521979  0.69043958  0.84024320  1
  O  O5  1  0.30956042  0.15478021  0.84024320  1
  O  O6  1  0.84521979  0.15478021  0.84024320  1
  O  O7  1  0.15478021  0.30956042  0.15975680  1
  O  O8  1  0.69043958  0.84521979  0.15975680  1
  O  O9  1  0.15478021  0.84521979  0.15975680  1
  O  O10  1  0.66666667  0.33333333  0.34894948  1
  O  O11  1  0.33333333  0.66666667  0.65105052  1
