# generated using pymatgen
data_K3Tb3PaTe8
_symmetry_space_group_name_H-M   'P 1'
_cell_length_a   8.94753800
_cell_length_b   8.94802288
_cell_length_c   9.84061074
_cell_angle_alpha   117.04347634
_cell_angle_beta   89.99994915
_cell_angle_gamma   119.99818882
_symmetry_Int_Tables_number   1
_chemical_formula_structural   K3Tb3PaTe8
_chemical_formula_sum   'K3 Tb3 Pa1 Te8'
_cell_volume   580.73100452
_cell_formula_units_Z   1
loop_
 _symmetry_equiv_pos_site_id
 _symmetry_equiv_pos_as_xyz
  1  'x, y, z'
loop_
 _atom_site_type_symbol
 _atom_site_label
 _atom_site_symmetry_multiplicity
 _atom_site_fract_x
 _atom_site_fract_y
 _atom_site_fract_z
 _atom_site_occupancy
  K  K0  1  0.00000000  0.00000000  0.00000000  1
  K  K1  1  0.00000000  0.50000000  0.00000000  1
  K  K2  1  0.50000000  0.50000000  0.00000000  1
  Tb  Tb3  1  0.50000000  0.00000000  0.50000000  1
  Tb  Tb4  1  0.50000000  0.50000000  0.50000000  1
  Tb  Tb5  1  0.00000000  0.50000000  0.50000000  1
  Pa  Pa6  1  0.00000000  0.00000000  0.50000000  1
  Te  Te7  1  0.26372287  0.52744555  0.29128004  1
  Te  Te8  1  0.73627713  0.47255445  0.70871996  1
  Te  Te9  1  0.76404398  0.52808741  0.29285097  1
  Te  Te10  1  0.23595602  0.47191259  0.70714903  1
  Te  Te11  1  0.76406136  0.02867973  0.29286260  1
  Te  Te12  1  0.23593864  0.97132027  0.70713740  1
  Te  Te13  1  0.26461886  0.02868087  0.29286310  1
  Te  Te14  1  0.73538114  0.97131913  0.70713690  1
