# generated using pymatgen
data_Ni10GeB3
_symmetry_space_group_name_H-M   'P 1'
_cell_length_a   7.38441145
_cell_length_b   7.38441046
_cell_length_c   7.38441094
_cell_angle_alpha   59.99999784
_cell_angle_beta   60.00000230
_cell_angle_gamma   59.99999963
_symmetry_Int_Tables_number   1
_chemical_formula_structural   Ni10GeB3
_chemical_formula_sum   'Ni20 Ge2 B6'
_cell_volume   284.72957140
_cell_formula_units_Z   2
loop_
 _symmetry_equiv_pos_site_id
 _symmetry_equiv_pos_as_xyz
  1  'x, y, z'
loop_
 _atom_site_type_symbol
 _atom_site_label
 _atom_site_symmetry_multiplicity
 _atom_site_fract_x
 _atom_site_fract_y
 _atom_site_fract_z
 _atom_site_occupancy
  Ni  Ni0  1  0.00000000  0.00000000  0.33277167  1
  Ni  Ni1  1  0.00000000  0.33277167  0.00000000  1
  Ni  Ni2  1  0.33277167  1.00000000  1.00000000  1
  Ni  Ni3  1  0.66722833  0.33277167  0.00000000  1
  Ni  Ni4  1  0.38102837  0.38102837  0.38102837  1
  Ni  Ni5  1  0.14308412  0.61897163  0.61897163  1
  Ni  Ni6  1  0.38102837  0.85691588  0.38102837  1
  Ni  Ni7  1  0.66722833  0.00000000  0.33277167  1
  Ni  Ni8  1  0.38102837  0.38102837  0.85691588  1
  Ni  Ni9  1  0.85691588  0.38102837  0.38102837  1
  Ni  Ni10  1  0.61897163  0.61897163  0.14308412  1
  Ni  Ni11  1  0.00000000  0.00000000  0.66722833  1
  Ni  Ni12  1  0.33277167  0.66722833  1.00000000  1
  Ni  Ni13  1  1.00000000  0.66722833  0.33277167  1
  Ni  Ni14  1  0.00000000  0.33277167  0.66722833  1
  Ni  Ni15  1  0.66722833  0.00000000  -0.00000000  1
  Ni  Ni16  1  0.61897163  0.61897163  0.61897163  1
  Ni  Ni17  1  1.00000000  0.66722833  1.00000000  1
  Ni  Ni18  1  0.61897163  0.14308412  0.61897163  1
  Ni  Ni19  1  0.33277167  1.00000000  0.66722833  1
  Ge  Ge20  1  0.25000000  0.25000000  0.25000000  1
  Ge  Ge21  1  0.75000000  0.75000000  0.75000000  1
  B  B22  1  0.72700617  0.72700617  0.27299383  1
  B  B23  1  0.72700617  0.27299383  0.72700617  1
  B  B24  1  0.27299383  0.72700617  0.72700617  1
  B  B25  1  0.27299383  0.27299383  0.72700617  1
  B  B26  1  0.72700617  0.27299383  0.27299383  1
  B  B27  1  0.27299383  0.72700617  0.27299383  1
