# generated using pymatgen
data_KZn(PO3)2
_symmetry_space_group_name_H-M   'P 1'
_cell_length_a   5.38224970
_cell_length_b   5.38224969
_cell_length_c   6.85999903
_cell_angle_alpha   66.90279116
_cell_angle_beta   66.90279113
_cell_angle_gamma   59.99999991
_symmetry_Int_Tables_number   1
_chemical_formula_structural   KZn(PO3)2
_chemical_formula_sum   'K1 Zn1 P2 O6'
_cell_volume   153.43122639
_cell_formula_units_Z   1
loop_
 _symmetry_equiv_pos_site_id
 _symmetry_equiv_pos_as_xyz
  1  'x, y, z'
loop_
 _atom_site_type_symbol
 _atom_site_label
 _atom_site_symmetry_multiplicity
 _atom_site_fract_x
 _atom_site_fract_y
 _atom_site_fract_z
 _atom_site_occupancy
  K  K0  1  0.00000000  0.00000000  0.00000000  1
  Zn  Zn1  1  0.50000000  0.50000000  0.50000000  1
  P  P2  1  0.75604965  0.75604965  0.73185206  1
  P  P3  1  0.24395035  0.24395035  0.26814794  1
  O  O4  1  0.07235052  0.52131974  0.70156982  1
  O  O5  1  0.70475992  0.07235052  0.70156982  1
  O  O6  1  0.47868026  0.29524008  0.29843018  1
  O  O7  1  0.92764948  0.47868026  0.29843018  1
  O  O8  1  0.29524008  0.92764948  0.29843018  1
  O  O9  1  0.52131974  0.70475992  0.70156982  1
