# generated using pymatgen
data_CsN2
_symmetry_space_group_name_H-M   'P 1'
_cell_length_a   7.07983109
_cell_length_b   7.07983109
_cell_length_c   7.07983285
_cell_angle_alpha   90.00000000
_cell_angle_beta   90.00002849
_cell_angle_gamma   89.99998576
_symmetry_Int_Tables_number   1
_chemical_formula_structural   CsN2
_chemical_formula_sum   'Cs4 N8'
_cell_volume   354.86960027
_cell_formula_units_Z   4
loop_
 _symmetry_equiv_pos_site_id
 _symmetry_equiv_pos_as_xyz
  1  'x, y, z'
loop_
 _atom_site_type_symbol
 _atom_site_label
 _atom_site_symmetry_multiplicity
 _atom_site_fract_x
 _atom_site_fract_y
 _atom_site_fract_z
 _atom_site_occupancy
  Cs  Cs0  1  0.00000000  0.50000000  0.50000000  1
  Cs  Cs1  1  0.50000000  0.50000000  -0.00000000  1
  Cs  Cs2  1  0.50000000  0.00000000  0.50000000  1
  Cs  Cs3  1  0.00000000  0.00000000  0.00000000  1
  N  N4  1  0.45163163  0.04836837  0.95163163  1
  N  N5  1  0.04836837  0.95163163  0.45163163  1
  N  N6  1  0.95163163  0.45163163  0.04836837  1
  N  N7  1  0.54836837  0.54836837  0.54836837  1
  N  N8  1  0.45163163  0.45163163  0.45163163  1
  N  N9  1  0.04836837  0.54836837  0.95163163  1
  N  N10  1  0.95163163  0.04836837  0.54836837  1
  N  N11  1  0.54836837  0.95163163  0.04836837  1
