# generated using pymatgen
data_Zn2CoPd9
_symmetry_space_group_name_H-M   'P 1'
_cell_length_a   3.89022794
_cell_length_b   3.89022794
_cell_length_c   11.74423641
_cell_angle_alpha   90.00000000
_cell_angle_beta   90.00000000
_cell_angle_gamma   90.00000000
_symmetry_Int_Tables_number   1
_chemical_formula_structural   Zn2CoPd9
_chemical_formula_sum   'Zn2 Co1 Pd9'
_cell_volume   177.73578730
_cell_formula_units_Z   1
loop_
 _symmetry_equiv_pos_site_id
 _symmetry_equiv_pos_as_xyz
  1  'x, y, z'
loop_
 _atom_site_type_symbol
 _atom_site_label
 _atom_site_symmetry_multiplicity
 _atom_site_fract_x
 _atom_site_fract_y
 _atom_site_fract_z
 _atom_site_occupancy
  Zn  Zn0  1  0.00000000  0.00000000  0.33392874  1
  Zn  Zn1  1  0.00000000  0.00000000  0.66607126  1
  Co  Co2  1  0.00000000  0.00000000  0.00000000  1
  Pd  Pd3  1  0.50000000  0.50000000  0.00000000  1
  Pd  Pd4  1  0.50000000  0.50000000  0.33064268  1
  Pd  Pd5  1  0.50000000  0.50000000  0.66935732  1
  Pd  Pd6  1  0.50000000  0.00000000  0.16249683  1
  Pd  Pd7  1  0.50000000  0.00000000  0.50000000  1
  Pd  Pd8  1  0.50000000  0.00000000  0.83750317  1
  Pd  Pd9  1  0.00000000  0.50000000  0.16249683  1
  Pd  Pd10  1  0.00000000  0.50000000  0.50000000  1
  Pd  Pd11  1  0.00000000  0.50000000  0.83750317  1
