# generated using pymatgen
data_TmAlRu2C
_symmetry_space_group_name_H-M   'P 1'
_cell_length_a   3.83646221
_cell_length_b   5.93770441
_cell_length_c   7.24309182
_cell_angle_alpha   90.00000000
_cell_angle_beta   90.00000000
_cell_angle_gamma   108.84804453
_symmetry_Int_Tables_number   1
_chemical_formula_structural   TmAlRu2C
_chemical_formula_sum   'Tm2 Al2 Ru4 C2'
_cell_volume   156.14872583
_cell_formula_units_Z   2
loop_
 _symmetry_equiv_pos_site_id
 _symmetry_equiv_pos_as_xyz
  1  'x, y, z'
loop_
 _atom_site_type_symbol
 _atom_site_label
 _atom_site_symmetry_multiplicity
 _atom_site_fract_x
 _atom_site_fract_y
 _atom_site_fract_z
 _atom_site_occupancy
  Tm  Tm0  1  0.45381303  0.90762606  0.75000000  1
  Tm  Tm1  1  0.54618697  0.09237394  0.25000000  1
  Al  Al2  1  0.73061227  0.46122454  0.75000000  1
  Al  Al3  1  0.26938773  0.53877546  0.25000000  1
  Ru  Ru4  1  0.16201533  0.32403067  0.94545251  1
  Ru  Ru5  1  0.83798467  0.67596933  0.05454749  1
  Ru  Ru6  1  0.16201533  0.32403067  0.55454749  1
  Ru  Ru7  1  0.83798467  0.67596933  0.44545251  1
  C  C8  1  0.00000000  0.00000000  0.00000000  1
  C  C9  1  0.00000000  0.00000000  0.50000000  1
