# generated using pymatgen
data_PuTl2F5
_symmetry_space_group_name_H-M   'P 1'
_cell_length_a   6.98173568
_cell_length_b   7.80753882
_cell_length_c   11.54854520
_cell_angle_alpha   90.00000000
_cell_angle_beta   90.00000460
_cell_angle_gamma   90.00000000
_symmetry_Int_Tables_number   1
_chemical_formula_structural   PuTl2F5
_chemical_formula_sum   'Pu4 Tl8 F20'
_cell_volume   629.51318927
_cell_formula_units_Z   4
loop_
 _symmetry_equiv_pos_site_id
 _symmetry_equiv_pos_as_xyz
  1  'x, y, z'
loop_
 _atom_site_type_symbol
 _atom_site_label
 _atom_site_symmetry_multiplicity
 _atom_site_fract_x
 _atom_site_fract_y
 _atom_site_fract_z
 _atom_site_occupancy
  Pu  Pu0  1  0.44846406  0.25000000  0.50081292  1
  Pu  Pu1  1  0.55153594  0.75000000  0.49918708  1
  Pu  Pu2  1  0.94846406  0.75000000  0.99918708  1
  Pu  Pu3  1  0.05153594  0.25000000  0.00081292  1
  Tl  Tl4  1  0.47658746  0.50299901  0.83202241  1
  Tl  Tl5  1  0.52341254  0.49700099  0.16797759  1
  Tl  Tl6  1  0.97658746  0.49700099  0.66797759  1
  Tl  Tl7  1  0.52341254  0.00299901  0.16797759  1
  Tl  Tl8  1  0.02341254  0.50299901  0.33202241  1
  Tl  Tl9  1  0.47658746  0.99700099  0.83202241  1
  Tl  Tl10  1  0.02341254  0.99700099  0.33202241  1
  Tl  Tl11  1  0.97658746  0.00299901  0.66797759  1
  F  F12  1  0.11145068  0.25000000  0.51669429  1
  F  F13  1  0.88854932  0.75000000  0.48330571  1
  F  F14  1  0.61145068  0.75000000  0.98330571  1
  F  F15  1  0.38854932  0.25000000  0.01669429  1
  F  F16  1  0.35108135  0.96960852  0.57178489  1
  F  F17  1  0.64891865  0.03039148  0.42821511  1
  F  F18  1  0.85108135  0.03039148  0.92821511  1
  F  F19  1  0.64891865  0.46960852  0.42821511  1
  F  F20  1  0.14891865  0.96960852  0.07178489  1
  F  F21  1  0.35108135  0.53039148  0.57178489  1
  F  F22  1  0.14891865  0.53039148  0.07178489  1
  F  F23  1  0.85108135  0.46960852  0.92821511  1
  F  F24  1  0.14734928  0.25000000  0.81078193  1
  F  F25  1  0.85265072  0.75000000  0.18921807  1
  F  F26  1  0.64734928  0.75000000  0.68921807  1
  F  F27  1  0.35265072  0.25000000  0.31078193  1
  F  F28  1  0.62088991  0.25000000  0.66866390  1
  F  F29  1  0.37911009  0.75000000  0.33133610  1
  F  F30  1  0.12088991  0.75000000  0.83133610  1
  F  F31  1  0.87911009  0.25000000  0.16866390  1
