# generated using pymatgen
data_BePt2
_symmetry_space_group_name_H-M   'P 1'
_cell_length_a   5.32526464
_cell_length_b   5.32526464
_cell_length_c   5.63036621
_cell_angle_alpha   89.78975942
_cell_angle_beta   89.78975942
_cell_angle_gamma   30.06639610
_symmetry_Int_Tables_number   1
_chemical_formula_structural   BePt2
_chemical_formula_sum   'Be2 Pt4'
_cell_volume   79.99381952
_cell_formula_units_Z   2
loop_
 _symmetry_equiv_pos_site_id
 _symmetry_equiv_pos_as_xyz
  1  'x, y, z'
loop_
 _atom_site_type_symbol
 _atom_site_label
 _atom_site_symmetry_multiplicity
 _atom_site_fract_x
 _atom_site_fract_y
 _atom_site_fract_z
 _atom_site_occupancy
  Be  Be0  1  0.01397126  0.01397126  0.91606522  1
  Be  Be1  1  0.26461725  0.26461725  0.41337721  1
  Pt  Pt2  1  0.60174805  0.60174805  0.22083218  1
  Pt  Pt3  1  0.94052544  0.94052544  0.53370216  1
  Pt  Pt4  1  0.67548063  0.67548063  0.71942300  1
  Pt  Pt5  1  0.33699068  0.33699068  0.02993356  1
