# generated using pymatgen
data_CuAu2Cl
_symmetry_space_group_name_H-M   'P 1'
_cell_length_a   5.63823808
_cell_length_b   5.63956182
_cell_length_c   5.63901767
_cell_angle_alpha   149.77300739
_cell_angle_beta   107.00372483
_cell_angle_gamma   81.00859370
_symmetry_Int_Tables_number   1
_chemical_formula_structural   CuAu2Cl
_chemical_formula_sum   'Cu1 Au2 Cl1'
_cell_volume   84.57316999
_cell_formula_units_Z   1
loop_
 _symmetry_equiv_pos_site_id
 _symmetry_equiv_pos_as_xyz
  1  'x, y, z'
loop_
 _atom_site_type_symbol
 _atom_site_label
 _atom_site_symmetry_multiplicity
 _atom_site_fract_x
 _atom_site_fract_y
 _atom_site_fract_z
 _atom_site_occupancy
  Au  Au0  1  0.02113782  0.02116615  0.00001177  1
  Au  Au1  1  0.75044542  0.25055543  0.50015565  1
  Cu  Cu2  1  0.26288301  0.76287240  0.50000444  1
  Cl  Cl3  1  0.46553375  0.46534643  0.99982815  1
