# generated using pymatgen
data_BaTa2Hg
_symmetry_space_group_name_H-M   'P 1'
_cell_length_a   3.51920770
_cell_length_b   3.53328333
_cell_length_c   9.01302882
_cell_angle_alpha   66.91109534
_cell_angle_beta   90.00000000
_cell_angle_gamma   90.00000000
_symmetry_Int_Tables_number   1
_chemical_formula_structural   BaTa2Hg
_chemical_formula_sum   'Ba1 Ta2 Hg1'
_cell_volume   103.09403580
_cell_formula_units_Z   1
loop_
 _symmetry_equiv_pos_site_id
 _symmetry_equiv_pos_as_xyz
  1  'x, y, z'
loop_
 _atom_site_type_symbol
 _atom_site_label
 _atom_site_symmetry_multiplicity
 _atom_site_fract_x
 _atom_site_fract_y
 _atom_site_fract_z
 _atom_site_occupancy
  Ba  Ba0  1  0.00000000  0.50428250  0.49609916  1
  Hg  Hg1  1  0.50000000  0.69606469  0.80505342  1
  Ta  Ta2  1  0.00000000  0.97110940  0.02816658  1
  Ta  Ta3  1  0.50000000  0.32854339  0.17068084  1
