# generated using pymatgen
data_CsSrSbO4
_symmetry_space_group_name_H-M   'P 1'
_cell_length_a   6.49296889
_cell_length_b   6.47808509
_cell_length_c   8.11489474
_cell_angle_alpha   90.00000000
_cell_angle_beta   106.40026052
_cell_angle_gamma   90.00000000
_symmetry_Int_Tables_number   1
_chemical_formula_structural   CsSrSbO4
_chemical_formula_sum   'Cs2 Sr2 Sb2 O8'
_cell_volume   327.44099464
_cell_formula_units_Z   2
loop_
 _symmetry_equiv_pos_site_id
 _symmetry_equiv_pos_as_xyz
  1  'x, y, z'
loop_
 _atom_site_type_symbol
 _atom_site_label
 _atom_site_symmetry_multiplicity
 _atom_site_fract_x
 _atom_site_fract_y
 _atom_site_fract_z
 _atom_site_occupancy
  Cs  Cs0  1  0.69985159  0.75000000  0.93163315  1
  Cs  Cs1  1  0.30014841  0.25000000  0.06836685  1
  Sr  Sr2  1  0.80421167  0.75000000  0.45512212  1
  Sr  Sr3  1  0.19578833  0.25000000  0.54487788  1
  Sb  Sb4  1  0.26885869  0.75000000  0.34330807  1
  Sb  Sb5  1  0.73114131  0.25000000  0.65669193  1
  O  O6  1  0.93053542  0.47372273  0.67607608  1
  O  O7  1  0.06946458  0.97372273  0.32392392  1
  O  O8  1  0.06946458  0.52627727  0.32392392  1
  O  O9  1  0.93053542  0.02627727  0.67607608  1
  O  O10  1  0.44585420  0.75000000  0.19171608  1
  O  O11  1  0.55414580  0.25000000  0.80828392  1
  O  O12  1  0.47089528  0.75000000  0.56613786  1
  O  O13  1  0.52910472  0.25000000  0.43386214  1
