# generated using pymatgen
data_LuPuPa
_symmetry_space_group_name_H-M   'P 1'
_cell_length_a   3.39259173
_cell_length_b   3.39259173
_cell_length_c   7.21403172
_cell_angle_alpha   103.59978107
_cell_angle_beta   103.59978107
_cell_angle_gamma   90.00000000
_symmetry_Int_Tables_number   1
_chemical_formula_structural   LuPuPa
_chemical_formula_sum   'Lu1 Pu1 Pa1'
_cell_volume   78.30593121
_cell_formula_units_Z   1
loop_
 _symmetry_equiv_pos_site_id
 _symmetry_equiv_pos_as_xyz
  1  'x, y, z'
loop_
 _atom_site_type_symbol
 _atom_site_label
 _atom_site_symmetry_multiplicity
 _atom_site_fract_x
 _atom_site_fract_y
 _atom_site_fract_z
 _atom_site_occupancy
  Pa  Pa0  1  0.32506485  0.32506485  0.65012971  1
  Lu  Lu1  1  0.99400852  0.99400852  0.98801704  1
  Pu  Pu2  1  0.68092663  0.68092663  0.36185325  1
