# generated using pymatgen
data_Ca3Sn3Au
_symmetry_space_group_name_H-M   'P 1'
_cell_length_a   4.74363427
_cell_length_b   6.14010863
_cell_length_c   14.77227034
_cell_angle_alpha   84.40507932
_cell_angle_beta   80.76066413
_cell_angle_gamma   67.27661420
_symmetry_Int_Tables_number   1
_chemical_formula_structural   Ca3Sn3Au
_chemical_formula_sum   'Ca6 Sn6 Au2'
_cell_volume   391.42034690
_cell_formula_units_Z   2
loop_
 _symmetry_equiv_pos_site_id
 _symmetry_equiv_pos_as_xyz
  1  'x, y, z'
loop_
 _atom_site_type_symbol
 _atom_site_label
 _atom_site_symmetry_multiplicity
 _atom_site_fract_x
 _atom_site_fract_y
 _atom_site_fract_z
 _atom_site_occupancy
  Ca  Ca0  1  0.53596702  0.31091815  0.61714782  1
  Ca  Ca1  1  0.46403298  0.68908185  0.38285218  1
  Ca  Ca2  1  0.26213101  0.24297683  0.23276114  1
  Ca  Ca3  1  0.73786899  0.75702317  0.76723886  1
  Ca  Ca4  1  0.40328378  0.27280137  0.92063106  1
  Ca  Ca5  1  0.59671622  0.72719863  0.07936894  1
  Sn  Sn6  1  0.86270423  0.73542119  0.53917135  1
  Sn  Sn7  1  0.13729577  0.26457881  0.46082865  1
  Sn  Sn8  1  0.11836980  0.83946883  0.92379156  1
  Sn  Sn9  1  0.88163020  0.16053117  0.07620844  1
  Sn  Sn10  1  0.97481183  0.81754294  0.23283341  1
  Sn  Sn11  1  0.02518817  0.18245706  0.76716659  1
  Au  Au12  1  0.75299130  0.10965975  0.38435665  1
  Au  Au13  1  0.24700870  0.89034025  0.61564335  1
