# generated using pymatgen
data_Ce2YIn
_symmetry_space_group_name_H-M   'P 1'
_cell_length_a   3.75461701
_cell_length_b   5.14958582
_cell_length_c   11.86062570
_cell_angle_alpha   102.52885003
_cell_angle_beta   90.00000000
_cell_angle_gamma   90.00000000
_symmetry_Int_Tables_number   1
_chemical_formula_structural   Ce2YIn
_chemical_formula_sum   'Ce4 Y2 In2'
_cell_volume   223.86104148
_cell_formula_units_Z   2
loop_
 _symmetry_equiv_pos_site_id
 _symmetry_equiv_pos_as_xyz
  1  'x, y, z'
loop_
 _atom_site_type_symbol
 _atom_site_label
 _atom_site_symmetry_multiplicity
 _atom_site_fract_x
 _atom_site_fract_y
 _atom_site_fract_z
 _atom_site_occupancy
  Ce  Ce0  1  0.75000000  0.43541588  0.87092706  1
  Ce  Ce1  1  0.25000000  0.56458412  0.12907294  1
  Ce  Ce2  1  0.25000000  0.95711708  0.91500324  1
  Ce  Ce3  1  0.75000000  0.04288292  0.08499676  1
  Y  Y4  1  0.25000000  0.29940998  0.59886830  1
  Y  Y5  1  0.75000000  0.70059002  0.40113170  1
  In  In6  1  0.75000000  0.83760742  0.67533460  1
  In  In7  1  0.25000000  0.16239258  0.32466540  1
