# generated using pymatgen
data_RhBrO
_symmetry_space_group_name_H-M   'P 1'
_cell_length_a   6.99078214
_cell_length_b   3.80416928
_cell_length_c   18.51176186
_cell_angle_alpha   90.00000000
_cell_angle_beta   90.00000000
_cell_angle_gamma   90.00000000
_symmetry_Int_Tables_number   1
_chemical_formula_structural   RhBrO
_chemical_formula_sum   'Rh2 Br2 O2'
_cell_volume   492.30399151
_cell_formula_units_Z   2
loop_
 _symmetry_equiv_pos_site_id
 _symmetry_equiv_pos_as_xyz
  1  'x, y, z'
loop_
 _atom_site_type_symbol
 _atom_site_label
 _atom_site_symmetry_multiplicity
 _atom_site_fract_x
 _atom_site_fract_y
 _atom_site_fract_z
 _atom_site_occupancy
  Rh  Rh0  1  0.61248843  0.99816613  0.51714633  1
  Rh  Rh1  1  0.38751157  0.49817613  0.51714633  1
  O  O2  1  0.77466203  0.99801062  0.58627901  1
  O  O3  1  0.22533797  0.49801062  0.58627901  1
  Br  Br4  1  0.72291173  0.99760558  0.39657466  1
  Br  Br5  1  0.27708827  0.49761558  0.39657466  1
