# generated using pymatgen
data_ThFe5As3
_symmetry_space_group_name_H-M   'P 1'
_cell_length_a   3.86754870
_cell_length_b   6.42740750
_cell_length_c   11.61017927
_cell_angle_alpha   90.00000475
_cell_angle_beta   90.00000000
_cell_angle_gamma   107.50948855
_symmetry_Int_Tables_number   1
_chemical_formula_structural   ThFe5As3
_chemical_formula_sum   'Th2 Fe10 As6'
_cell_volume   275.23735136
_cell_formula_units_Z   2
loop_
 _symmetry_equiv_pos_site_id
 _symmetry_equiv_pos_as_xyz
  1  'x, y, z'
loop_
 _atom_site_type_symbol
 _atom_site_label
 _atom_site_symmetry_multiplicity
 _atom_site_fract_x
 _atom_site_fract_y
 _atom_site_fract_z
 _atom_site_occupancy
  Th  Th0  1  0.83618464  0.67236827  0.75000000  1
  Th  Th1  1  0.16381536  0.32763173  0.25000000  1
  Fe  Fe2  1  0.80992697  0.61985395  0.44670673  1
  Fe  Fe3  1  0.19007303  0.38014605  0.94670673  1
  Fe  Fe4  1  0.00000000  0.00000000  0.50000000  1
  Fe  Fe5  1  0.00000000  0.00000000  0.00000000  1
  Fe  Fe6  1  0.44205306  0.88410612  0.14586938  1
  Fe  Fe7  1  0.55794694  0.11589388  0.85413062  1
  Fe  Fe8  1  0.55794694  0.11589388  0.64586938  1
  Fe  Fe9  1  0.80992697  0.61985395  0.05329327  1
  Fe  Fe10  1  0.19007303  0.38014605  0.55329327  1
  Fe  Fe11  1  0.44205306  0.88410612  0.35413062  1
  As  As12  1  0.38042596  0.76085092  0.94526863  1
  As  As13  1  0.87739150  0.75478201  0.25000000  1
  As  As14  1  0.38042596  0.76085092  0.55473137  1
  As  As15  1  0.61957404  0.23914908  0.44526863  1
  As  As16  1  0.12260850  0.24521799  0.75000000  1
  As  As17  1  0.61957404  0.23914908  0.05473137  1
