# generated using pymatgen
data_NbPd2Cl
_symmetry_space_group_name_H-M   'P 1'
_cell_length_a   7.26981168
_cell_length_b   7.26981168
_cell_length_c   5.79178290
_cell_angle_alpha   51.12694136
_cell_angle_beta   51.12694136
_cell_angle_gamma   90.00000000
_symmetry_Int_Tables_number   1
_chemical_formula_structural   NbPd2Cl
_chemical_formula_sum   'Nb2 Pd4 Cl2'
_cell_volume   141.01853522
_cell_formula_units_Z   2
loop_
 _symmetry_equiv_pos_site_id
 _symmetry_equiv_pos_as_xyz
  1  'x, y, z'
loop_
 _atom_site_type_symbol
 _atom_site_label
 _atom_site_symmetry_multiplicity
 _atom_site_fract_x
 _atom_site_fract_y
 _atom_site_fract_z
 _atom_site_occupancy
  Nb  Nb0  1  0.00000000  0.00000000  0.00000000  1
  Nb  Nb1  1  0.75000000  0.25000000  0.50000000  1
  Pd  Pd2  1  0.62606399  0.12500000  0.25000000  1
  Pd  Pd3  1  0.12393601  0.62500000  0.25000000  1
  Pd  Pd4  1  0.37500000  0.37393601  0.75000000  1
  Pd  Pd5  1  0.87500000  0.87606399  0.75000000  1
  Cl  Cl6  1  0.50000000  0.50000000  0.00000000  1
  Cl  Cl7  1  0.25000000  0.75000000  0.50000000  1
