# generated using pymatgen
data_Lu3Ga
_symmetry_space_group_name_H-M   'P 1'
_cell_length_a   3.35337972
_cell_length_b   3.35236210
_cell_length_c   9.77463517
_cell_angle_alpha   90.00000000
_cell_angle_beta   90.00000000
_cell_angle_gamma   90.00000000
_symmetry_Int_Tables_number   1
_chemical_formula_structural   Lu3Ga
_chemical_formula_sum   'Lu3 Ga1'
_cell_volume   109.88393728
_cell_formula_units_Z   1
loop_
 _symmetry_equiv_pos_site_id
 _symmetry_equiv_pos_as_xyz
  1  'x, y, z'
loop_
 _atom_site_type_symbol
 _atom_site_label
 _atom_site_symmetry_multiplicity
 _atom_site_fract_x
 _atom_site_fract_y
 _atom_site_fract_z
 _atom_site_occupancy
  Lu  Lu0  1  0.00000000  0.50000000  0.47083286  1
  Lu  Lu1  1  0.50000000  0.50000000  0.16181329  1
  Lu  Lu2  1  0.50000000  0.00000000  0.72596128  1
  Ga  Ga3  1  0.00000000  0.00000000  0.97472558  1
