# generated using pymatgen
data_Nd2AsO5
_symmetry_space_group_name_H-M   'P 1'
_cell_length_a   7.08220136
_cell_length_b   7.46230697
_cell_length_c   9.37626091
_cell_angle_alpha   90.00001076
_cell_angle_beta   91.66505716
_cell_angle_gamma   89.99998437
_symmetry_Int_Tables_number   1
_chemical_formula_structural   Nd2AsO5
_chemical_formula_sum   'Nd8 As4 O20'
_cell_volume   495.32203908
_cell_formula_units_Z   4
loop_
 _symmetry_equiv_pos_site_id
 _symmetry_equiv_pos_as_xyz
  1  'x, y, z'
loop_
 _atom_site_type_symbol
 _atom_site_label
 _atom_site_symmetry_multiplicity
 _atom_site_fract_x
 _atom_site_fract_y
 _atom_site_fract_z
 _atom_site_occupancy
  Nd  Nd0  1  0.72802879  0.87961008  0.02401848  1
  Nd  Nd1  1  0.22802879  0.62038992  0.02401848  1
  Nd  Nd2  1  0.42762253  0.85611151  0.34800762  1
  Nd  Nd3  1  0.92762253  0.64388849  0.34800762  1
  Nd  Nd4  1  0.07237747  0.35611151  0.65199238  1
  Nd  Nd5  1  0.57237747  0.14388849  0.65199238  1
  Nd  Nd6  1  0.77197121  0.37961008  0.97598152  1
  Nd  Nd7  1  0.27197121  0.12038992  0.97598152  1
  As  As8  1  0.41983433  0.39408349  0.31323364  1
  As  As9  1  0.91983433  0.10591651  0.31323364  1
  As  As10  1  0.08016567  0.89408349  0.68676636  1
  As  As11  1  0.58016567  0.60591651  0.68676636  1
  O  O12  1  0.93813472  0.14019499  0.12151516  1
  O  O13  1  0.90805226  0.62403895  0.09695592  1
  O  O14  1  0.43813472  0.35980501  0.12151516  1
  O  O15  1  0.40805226  0.87596105  0.09695592  1
  O  O16  1  0.74197711  0.89652974  0.27726362  1
  O  O17  1  0.00040310  0.32062302  0.39450414  1
  O  O18  1  0.24197711  0.60347026  0.27726362  1
  O  O19  1  0.60440721  0.54848140  0.35167209  1
  O  O20  1  0.50040310  0.17937698  0.39450414  1
  O  O21  1  0.10440721  0.95151860  0.35167209  1
  O  O22  1  0.89559279  0.04848140  0.64832791  1
  O  O23  1  0.49959690  0.82062302  0.60549586  1
  O  O24  1  0.39559279  0.45151860  0.64832791  1
  O  O25  1  0.75802289  0.39652974  0.72273638  1
  O  O26  1  0.99959690  0.67937698  0.60549586  1
  O  O27  1  0.25802289  0.10347026  0.72273638  1
  O  O28  1  0.59194774  0.12403895  0.90304408  1
  O  O29  1  0.56186528  0.64019499  0.87848484  1
  O  O30  1  0.09194774  0.37596105  0.90304408  1
  O  O31  1  0.06186528  0.85980501  0.87848484  1
