# generated using pymatgen
data_ScFe2Ag
_symmetry_space_group_name_H-M   'P 1'
_cell_length_a   5.05020856
_cell_length_b   5.05020857
_cell_length_c   4.30844873
_cell_angle_alpha   64.82743868
_cell_angle_beta   64.82743868
_cell_angle_gamma   39.27740362
_symmetry_Int_Tables_number   1
_chemical_formula_structural   ScFe2Ag
_chemical_formula_sum   'Sc1 Fe2 Ag1'
_cell_volume   62.06737558
_cell_formula_units_Z   1
loop_
 _symmetry_equiv_pos_site_id
 _symmetry_equiv_pos_as_xyz
  1  'x, y, z'
loop_
 _atom_site_type_symbol
 _atom_site_label
 _atom_site_symmetry_multiplicity
 _atom_site_fract_x
 _atom_site_fract_y
 _atom_site_fract_z
 _atom_site_occupancy
  Ag  Ag0  1  0.26140366  0.26140366  0.23866114  1
  Fe  Fe1  1  0.02388525  0.02388525  0.97575820  1
  Fe  Fe2  1  0.72451297  0.72451297  0.77585523  1
  Sc  Sc3  1  0.49019811  0.49019811  0.50972542  1
