# generated using pymatgen
data_Sr2Ag4BiSb3
_symmetry_space_group_name_H-M   'P 1'
_cell_length_a   4.72780131
_cell_length_b   4.72780131
_cell_length_c   12.22450906
_cell_angle_alpha   90.00000000
_cell_angle_beta   90.00000000
_cell_angle_gamma   90.00000000
_symmetry_Int_Tables_number   1
_chemical_formula_structural   Sr2Ag4BiSb3
_chemical_formula_sum   'Sr2 Ag4 Bi1 Sb3'
_cell_volume   273.24351286
_cell_formula_units_Z   1
loop_
 _symmetry_equiv_pos_site_id
 _symmetry_equiv_pos_as_xyz
  1  'x, y, z'
loop_
 _atom_site_type_symbol
 _atom_site_label
 _atom_site_symmetry_multiplicity
 _atom_site_fract_x
 _atom_site_fract_y
 _atom_site_fract_z
 _atom_site_occupancy
  Sr  Sr0  1  0.50000000  0.00000000  0.22942224  1
  Sr  Sr1  1  0.00000000  0.50000000  0.77057776  1
  Ag  Ag2  1  0.50000000  0.50000000  0.00000000  1
  Ag  Ag3  1  0.00000000  0.00000000  0.00000000  1
  Ag  Ag4  1  0.50000000  0.00000000  0.64553474  1
  Ag  Ag5  1  0.00000000  0.50000000  0.35446526  1
  Bi  Bi6  1  0.50000000  0.50000000  0.50000000  1
  Sb  Sb7  1  0.00000000  0.00000000  0.50000000  1
  Sb  Sb8  1  0.50000000  0.00000000  0.86642403  1
  Sb  Sb9  1  0.00000000  0.50000000  0.13357597  1
