# generated using pymatgen
data_Ce2PrIr
_symmetry_space_group_name_H-M   'P 1'
_cell_length_a   3.84190994
_cell_length_b   3.84190994
_cell_length_c   10.28587312
_cell_angle_alpha   79.23643516
_cell_angle_beta   79.23643516
_cell_angle_gamma   60.00000002
_symmetry_Int_Tables_number   1
_chemical_formula_structural   Ce2PrIr
_chemical_formula_sum   'Ce2 Pr1 Ir1'
_cell_volume   128.38833935
_cell_formula_units_Z   1
loop_
 _symmetry_equiv_pos_site_id
 _symmetry_equiv_pos_as_xyz
  1  'x, y, z'
loop_
 _atom_site_type_symbol
 _atom_site_label
 _atom_site_symmetry_multiplicity
 _atom_site_fract_x
 _atom_site_fract_y
 _atom_site_fract_z
 _atom_site_occupancy
  Pr  Pr0  1  0.00000000  0.00000000  0.00000000  1
  Ir  Ir1  1  0.50000000  0.50000000  0.50000000  1
  Ce  Ce2  1  0.11077239  0.11077239  0.66768382  1
  Ce  Ce3  1  0.88922761  0.88922761  0.33231618  1
