# generated using pymatgen
data_Na2SbCl6
_symmetry_space_group_name_H-M   'P 1'
_cell_length_a   7.00929586
_cell_length_b   7.00929504
_cell_length_c   17.89632736
_cell_angle_alpha   90.00000000
_cell_angle_beta   90.00000000
_cell_angle_gamma   120.00000255
_symmetry_Int_Tables_number   1
_chemical_formula_structural   Na2SbCl6
_chemical_formula_sum   'Na2 Sb1 Cl6'
_cell_volume   761.45329183
_cell_formula_units_Z   1
loop_
 _symmetry_equiv_pos_site_id
 _symmetry_equiv_pos_as_xyz
  1  'x, y, z'
loop_
 _atom_site_type_symbol
 _atom_site_label
 _atom_site_symmetry_multiplicity
 _atom_site_fract_x
 _atom_site_fract_y
 _atom_site_fract_z
 _atom_site_occupancy
  Na  Na0  1  0.33333333  0.66666666  0.49999999  1
  Na  Na1  1  0.66666666  0.33333334  0.49999999  1
  Sb  Sb2  1  0.00000001  0.00000001  0.49999999  1
  Cl  Cl3  1  0.70005456  0.00000000  0.58091960  1
  Cl  Cl4  1  0.29994544  0.29994544  0.58091960  1
  Cl  Cl5  1  1.00000000  0.70005456  0.58091960  1
  Cl  Cl6  1  0.29994543  1.00000000  0.41908040  1
  Cl  Cl7  1  0.70005457  0.70005457  0.41908040  1
  Cl  Cl8  1  0.00000000  0.29994543  0.41908041  1
