# generated using pymatgen
data_USi4Ni2Ru
_symmetry_space_group_name_H-M   'P 1'
_cell_length_a   3.92208472
_cell_length_b   3.92208472
_cell_length_c   8.94478101
_cell_angle_alpha   77.33567659
_cell_angle_beta   77.33567657
_cell_angle_gamma   59.99999998
_symmetry_Int_Tables_number   1
_chemical_formula_structural   USi4Ni2Ru
_chemical_formula_sum   'U1 Si4 Ni2 Ru1'
_cell_volume   115.27945409
_cell_formula_units_Z   1
loop_
 _symmetry_equiv_pos_site_id
 _symmetry_equiv_pos_as_xyz
  1  'x, y, z'
loop_
 _atom_site_type_symbol
 _atom_site_label
 _atom_site_symmetry_multiplicity
 _atom_site_fract_x
 _atom_site_fract_y
 _atom_site_fract_z
 _atom_site_occupancy
  U  U0  1  0.00000000  0.00000000  0.00000000  1
  Si  Si1  1  0.40160410  0.40160410  0.79518771  1
  Si  Si2  1  0.87744620  0.87744620  0.36766140  1
  Si  Si3  1  0.12255380  0.12255380  0.63233860  1
  Si  Si4  1  0.59839590  0.59839590  0.20481229  1
  Ni  Ni5  1  0.76448662  0.76448662  0.70654013  1
  Ni  Ni6  1  0.23551338  0.23551338  0.29345987  1
  Ru  Ru7  1  0.50000000  0.50000000  0.50000000  1
