# generated using pymatgen
data_HSe3N
_symmetry_space_group_name_H-M   'P 1'
_cell_length_a   7.80498020
_cell_length_b   9.47107469
_cell_length_c   13.79095267
_cell_angle_alpha   90.00000000
_cell_angle_beta   90.00000000
_cell_angle_gamma   90.00000000
_symmetry_Int_Tables_number   1
_chemical_formula_structural   HSe3N
_chemical_formula_sum   'H8 Se24 N8'
_cell_volume   1019.44860325
_cell_formula_units_Z   8
loop_
 _symmetry_equiv_pos_site_id
 _symmetry_equiv_pos_as_xyz
  1  'x, y, z'
loop_
 _atom_site_type_symbol
 _atom_site_label
 _atom_site_symmetry_multiplicity
 _atom_site_fract_x
 _atom_site_fract_y
 _atom_site_fract_z
 _atom_site_occupancy
  H  H0  1  0.38091110  0.78094502  0.25000000  1
  H  H1  1  0.11908890  0.28094502  0.25000000  1
  H  H2  1  0.61908890  0.21905498  0.75000000  1
  H  H3  1  0.88091110  0.71905498  0.75000000  1
  H  H4  1  0.64671103  0.59174584  0.25000000  1
  H  H5  1  0.85328897  0.09174584  0.25000000  1
  H  H6  1  0.35328897  0.40825416  0.75000000  1
  H  H7  1  0.14671103  0.90825416  0.75000000  1
  Se  Se8  1  0.30987095  0.59854302  0.13005643  1
  Se  Se9  1  0.19012905  0.09854302  0.36994357  1
  Se  Se10  1  0.69012905  0.40145698  0.63005643  1
  Se  Se11  1  0.80987095  0.90145698  0.86994357  1
  Se  Se12  1  0.69012905  0.40145698  0.86994357  1
  Se  Se13  1  0.80987095  0.90145698  0.63005643  1
  Se  Se14  1  0.30987095  0.59854302  0.36994357  1
  Se  Se15  1  0.19012905  0.09854302  0.13005643  1
  Se  Se16  1  0.02721991  0.66839762  0.09167222  1
  Se  Se17  1  0.47278009  0.16839762  0.40832778  1
  Se  Se18  1  0.97278009  0.33160238  0.59167222  1
  Se  Se19  1  0.52721991  0.83160238  0.90832778  1
  Se  Se20  1  0.97278009  0.33160238  0.90832778  1
  Se  Se21  1  0.52721991  0.83160238  0.59167222  1
  Se  Se22  1  0.02721991  0.66839762  0.40832778  1
  Se  Se23  1  0.47278009  0.16839762  0.09167222  1
  Se  Se24  1  0.84027391  0.47674720  0.13169087  1
  Se  Se25  1  0.65972609  0.97674720  0.36830913  1
  Se  Se26  1  0.15972609  0.52325280  0.63169087  1
  Se  Se27  1  0.34027391  0.02325280  0.86830913  1
  Se  Se28  1  0.15972609  0.52325280  0.86830913  1
  Se  Se29  1  0.34027391  0.02325280  0.63169087  1
  Se  Se30  1  0.84027391  0.47674720  0.36830913  1
  Se  Se31  1  0.65972609  0.97674720  0.13169087  1
  N  N32  1  0.37878416  0.67258116  0.25000000  1
  N  N33  1  0.12121584  0.17258116  0.25000000  1
  N  N34  1  0.62121584  0.32741884  0.75000000  1
  N  N35  1  0.87878416  0.82741884  0.75000000  1
  N  N36  1  0.73717976  0.51288214  0.25000000  1
  N  N37  1  0.76282024  0.01288214  0.25000000  1
  N  N38  1  0.26282024  0.48711786  0.75000000  1
  N  N39  1  0.23717976  0.98711786  0.75000000  1
