# generated using pymatgen
data_LuAl4Ir
_symmetry_space_group_name_H-M   'P 1'
_cell_length_a   4.07122472
_cell_length_b   6.80919003
_cell_length_c   7.78693648
_cell_angle_alpha   90.00000000
_cell_angle_beta   90.00000000
_cell_angle_gamma   90.00000000
_symmetry_Int_Tables_number   1
_chemical_formula_structural   LuAl4Ir
_chemical_formula_sum   'Lu2 Al8 Ir2'
_cell_volume   215.86745009
_cell_formula_units_Z   2
loop_
 _symmetry_equiv_pos_site_id
 _symmetry_equiv_pos_as_xyz
  1  'x, y, z'
loop_
 _atom_site_type_symbol
 _atom_site_label
 _atom_site_symmetry_multiplicity
 _atom_site_fract_x
 _atom_site_fract_y
 _atom_site_fract_z
 _atom_site_occupancy
  Ir  Ir0  1  0.00000000  0.79462420  0.25000000  1
  Ir  Ir1  1  0.00000000  0.20537580  0.75000000  1
  Lu  Lu2  1  0.00000000  0.38314708  0.25000000  1
  Lu  Lu3  1  0.00000000  0.61685292  0.75000000  1
  Al  Al4  1  0.00000000  0.00000000  0.00000000  1
  Al  Al5  1  0.50000000  0.31140163  0.56020285  1
  Al  Al6  1  0.50000000  0.04941517  0.25000000  1
  Al  Al7  1  0.00000000  0.00000000  0.50000000  1
  Al  Al8  1  0.50000000  0.95058483  0.75000000  1
  Al  Al9  1  0.50000000  0.31140163  0.93979715  1
  Al  Al10  1  0.50000000  0.68859837  0.06020285  1
  Al  Al11  1  0.50000000  0.68859837  0.43979715  1
