# generated using pymatgen
data_Rb4SbTe4
_symmetry_space_group_name_H-M   'P 1'
_cell_length_a   7.34612517
_cell_length_b   8.66907871
_cell_length_c   8.66907872
_cell_angle_alpha   79.65824755
_cell_angle_beta   64.93178481
_cell_angle_gamma   64.93178487
_symmetry_Int_Tables_number   1
_chemical_formula_structural   Rb4SbTe4
_chemical_formula_sum   'Rb4 Sb1 Te4'
_cell_volume   452.97336904
_cell_formula_units_Z   1
loop_
 _symmetry_equiv_pos_site_id
 _symmetry_equiv_pos_as_xyz
  1  'x, y, z'
loop_
 _atom_site_type_symbol
 _atom_site_label
 _atom_site_symmetry_multiplicity
 _atom_site_fract_x
 _atom_site_fract_y
 _atom_site_fract_z
 _atom_site_occupancy
  Rb  Rb0  1  0.80175703  0.61213143  0.78435452  1
  Rb  Rb1  1  0.19824297  0.38786857  0.21564548  1
  Rb  Rb2  1  0.58611155  0.21564548  0.61213143  1
  Rb  Rb3  1  0.41388845  0.78435452  0.38786857  1
  Sb  Sb4  1  0.00000000  0.00000000  0.00000000  1
  Te  Te5  1  0.74859288  0.33802311  0.16479014  1
  Te  Te6  1  0.25140712  0.66197689  0.83520986  1
  Te  Te7  1  0.91338402  0.83520986  0.33802311  1
  Te  Te8  1  0.08661598  0.16479014  0.66197689  1
