# generated using pymatgen
data_PrAg2SO8
_symmetry_space_group_name_H-M   'P 1'
_cell_length_a   5.08661477
_cell_length_b   5.08661477
_cell_length_c   6.47591163
_cell_angle_alpha   90.00000000
_cell_angle_beta   90.00000000
_cell_angle_gamma   119.99999995
_symmetry_Int_Tables_number   1
_chemical_formula_structural   PrAg2SO8
_chemical_formula_sum   'Pr1 Ag2 S1 O8'
_cell_volume   145.10729336
_cell_formula_units_Z   1
loop_
 _symmetry_equiv_pos_site_id
 _symmetry_equiv_pos_as_xyz
  1  'x, y, z'
loop_
 _atom_site_type_symbol
 _atom_site_label
 _atom_site_symmetry_multiplicity
 _atom_site_fract_x
 _atom_site_fract_y
 _atom_site_fract_z
 _atom_site_occupancy
  Pr  Pr0  1  0.00000000  0.00000000  0.50000000  1
  Ag  Ag1  1  0.66666667  0.33333333  0.14561720  1
  Ag  Ag2  1  0.33333333  0.66666667  0.85438280  1
  S  S3  1  0.00000000  0.00000000  0.00000000  1
  O  O4  1  0.84922345  0.69844691  0.84666819  1
  O  O5  1  0.30155309  0.15077655  0.84666819  1
  O  O6  1  0.84922345  0.15077655  0.84666819  1
  O  O7  1  0.15077655  0.30155309  0.15333181  1
  O  O8  1  0.69844691  0.84922345  0.15333181  1
  O  O9  1  0.15077655  0.84922345  0.15333181  1
  O  O10  1  0.66666667  0.33333333  0.46306211  1
  O  O11  1  0.33333333  0.66666667  0.53693789  1
