# generated using pymatgen
data_LiY2
_symmetry_space_group_name_H-M   'P 1'
_cell_length_a   13.29896632
_cell_length_b   13.29896632
_cell_length_c   13.29896632
_cell_angle_alpha   164.38493647
_cell_angle_beta   164.38493647
_cell_angle_gamma   22.15247628
_symmetry_Int_Tables_number   1
_chemical_formula_structural   LiY2
_chemical_formula_sum   'Li2 Y4'
_cell_volume   170.38838610
_cell_formula_units_Z   2
loop_
 _symmetry_equiv_pos_site_id
 _symmetry_equiv_pos_as_xyz
  1  'x, y, z'
loop_
 _atom_site_type_symbol
 _atom_site_label
 _atom_site_symmetry_multiplicity
 _atom_site_fract_x
 _atom_site_fract_y
 _atom_site_fract_z
 _atom_site_occupancy
  Li  Li0  1  0.00000000  0.00000000  0.00000000  1
  Li  Li1  1  0.75000000  0.25000000  0.50000000  1
  Y  Y2  1  0.57044543  0.57044543  0.00000000  1
  Y  Y3  1  0.17955457  0.67955457  0.50000000  1
  Y  Y4  1  0.42955457  0.42955457  0.00000000  1
  Y  Y5  1  0.32044543  0.82044543  0.50000000  1
