# generated using pymatgen
data_Cd(IO3)2
_symmetry_space_group_name_H-M   'P 1'
_cell_length_a   5.71609187
_cell_length_b   5.91980011
_cell_length_c   17.63107689
_cell_angle_alpha   90.00000000
_cell_angle_beta   90.00000000
_cell_angle_gamma   90.00000000
_symmetry_Int_Tables_number   1
_chemical_formula_structural   Cd(IO3)2
_chemical_formula_sum   'Cd4 I8 O24'
_cell_volume   596.60251811
_cell_formula_units_Z   4
loop_
 _symmetry_equiv_pos_site_id
 _symmetry_equiv_pos_as_xyz
  1  'x, y, z'
loop_
 _atom_site_type_symbol
 _atom_site_label
 _atom_site_symmetry_multiplicity
 _atom_site_fract_x
 _atom_site_fract_y
 _atom_site_fract_z
 _atom_site_occupancy
  Cd  Cd0  1  0.71112287  0.17419838  0.09351071  1
  Cd  Cd1  1  0.21112287  0.32580162  0.90648929  1
  Cd  Cd2  1  0.28887713  0.67419838  0.40648929  1
  Cd  Cd3  1  0.78887713  0.82580162  0.59351071  1
  I  I4  1  0.24217808  0.78374419  0.70809217  1
  I  I5  1  0.74217808  0.71625581  0.29190783  1
  I  I6  1  0.75782192  0.28374419  0.79190783  1
  I  I7  1  0.25782192  0.21625581  0.20809217  1
  I  I8  1  0.03414265  0.63866070  0.07702185  1
  I  I9  1  0.53414265  0.86133930  0.92297815  1
  I  I10  1  0.96585735  0.13866070  0.42297815  1
  I  I11  1  0.46585735  0.36133930  0.57702185  1
  O  O12  1  0.54303126  0.60441565  0.51561942  1
  O  O13  1  0.04303126  0.89558435  0.48438058  1
  O  O14  1  0.45696874  0.10441565  0.98438058  1
  O  O15  1  0.95696874  0.39558435  0.01561942  1
  O  O16  1  0.60909317  0.49195812  0.66115955  1
  O  O17  1  0.10909317  0.00804188  0.33884045  1
  O  O18  1  0.39090683  0.99195812  0.83884045  1
  O  O19  1  0.89090683  0.50804188  0.16115955  1
  O  O20  1  0.71244605  0.18076691  0.54479620  1
  O  O21  1  0.21244605  0.31923309  0.45520380  1
  O  O22  1  0.28755395  0.68076691  0.95520380  1
  O  O23  1  0.78755395  0.81923309  0.04479620  1
  O  O24  1  0.04883943  0.02160762  0.16218065  1
  O  O25  1  0.54883943  0.47839238  0.83781935  1
  O  O26  1  0.95116057  0.52160762  0.33781935  1
  O  O27  1  0.45116057  0.97839238  0.66218065  1
  O  O28  1  0.36394749  0.37726301  0.12448546  1
  O  O29  1  0.86394749  0.12273699  0.87551454  1
  O  O30  1  0.63605251  0.87726301  0.37551454  1
  O  O31  1  0.13605251  0.62273699  0.62448546  1
  O  O32  1  0.51864571  0.03386309  0.20671035  1
  O  O33  1  0.01864571  0.46613691  0.79328965  1
  O  O34  1  0.48135429  0.53386309  0.29328965  1
  O  O35  1  0.98135429  0.96613691  0.70671035  1
