# generated using pymatgen
data_Ta2PW
_symmetry_space_group_name_H-M   'P 1'
_cell_length_a   3.37446533
_cell_length_b   4.28734535
_cell_length_c   4.44225195
_cell_angle_alpha   90.00000000
_cell_angle_beta   90.00000000
_cell_angle_gamma   90.00000000
_symmetry_Int_Tables_number   1
_chemical_formula_structural   Ta2PW
_chemical_formula_sum   'Ta2 P1 W1'
_cell_volume   64.26827227
_cell_formula_units_Z   1
loop_
 _symmetry_equiv_pos_site_id
 _symmetry_equiv_pos_as_xyz
  1  'x, y, z'
loop_
 _atom_site_type_symbol
 _atom_site_label
 _atom_site_symmetry_multiplicity
 _atom_site_fract_x
 _atom_site_fract_y
 _atom_site_fract_z
 _atom_site_occupancy
  Ta  Ta0  1  0.00000000  0.00000000  0.00000000  1
  Ta  Ta1  1  0.50000000  0.00000000  0.50000000  1
  P  P2  1  0.00000000  0.50000000  0.50000000  1
  W  W3  1  0.50000000  0.50000000  0.00000000  1
