# generated using pymatgen
data_Sc2Al3Hg
_symmetry_space_group_name_H-M   'P 1'
_cell_length_a   5.56879109
_cell_length_b   5.56879114
_cell_length_c   8.50336639
_cell_angle_alpha   102.68891109
_cell_angle_beta   102.68891120
_cell_angle_gamma   109.21905522
_symmetry_Int_Tables_number   1
_chemical_formula_structural   Sc2Al3Hg
_chemical_formula_sum   'Sc4 Al6 Hg2'
_cell_volume   230.39971650
_cell_formula_units_Z   2
loop_
 _symmetry_equiv_pos_site_id
 _symmetry_equiv_pos_as_xyz
  1  'x, y, z'
loop_
 _atom_site_type_symbol
 _atom_site_label
 _atom_site_symmetry_multiplicity
 _atom_site_fract_x
 _atom_site_fract_y
 _atom_site_fract_z
 _atom_site_occupancy
  Sc  Sc0  1  0.25000000  0.75000000  0.50000000  1
  Sc  Sc1  1  0.75372919  0.75372919  1.00000000  1
  Sc  Sc2  1  0.75000000  0.25000000  0.50000000  1
  Sc  Sc3  1  0.24627081  0.24627081  -0.00000000  1
  Al  Al4  1  0.33075196  0.83409300  0.16484496  1
  Al  Al5  1  0.16590700  0.66924804  0.83515504  1
  Al  Al6  1  0.66924804  0.16590700  0.83515504  1
  Al  Al7  1  0.83409300  0.33075196  0.16484496  1
  Al  Al8  1  0.16467465  0.16467465  0.32934931  1
  Al  Al9  1  0.83532535  0.83532535  0.67065069  1
  Hg  Hg10  1  0.66710181  0.66710181  0.33420462  1
  Hg  Hg11  1  0.33289819  0.33289819  0.66579538  1
