# generated using pymatgen
data_VSBr
_symmetry_space_group_name_H-M   'P 1'
_cell_length_a   3.37704797
_cell_length_b   16.69880828
_cell_length_c   21.87683010
_cell_angle_alpha   90.00000000
_cell_angle_beta   90.00000000
_cell_angle_gamma   89.99999207
_symmetry_Int_Tables_number   1
_chemical_formula_structural   VSBr
_chemical_formula_sum   'V6 S6 Br6'
_cell_volume   1233.69300494
_cell_formula_units_Z   6
loop_
 _symmetry_equiv_pos_site_id
 _symmetry_equiv_pos_as_xyz
  1  'x, y, z'
loop_
 _atom_site_type_symbol
 _atom_site_label
 _atom_site_symmetry_multiplicity
 _atom_site_fract_x
 _atom_site_fract_y
 _atom_site_fract_z
 _atom_site_occupancy
  V  V0  1  0.81267276  0.82303736  0.59325152  1
  V  V1  1  0.18732713  0.32303737  0.40674849  1
  V  V2  1  0.18732712  0.32303736  0.59325152  1
  V  V3  1  0.81267277  0.82303737  0.40674848  1
  V  V4  1  0.18707222  0.22668995  0.49999999  1
  V  V5  1  0.81292842  0.72668996  0.49999999  1
  S  S6  1  0.31268366  0.72613861  0.58141212  1
  S  S7  1  0.68731670  0.22613860  0.41858788  1
  S  S8  1  0.68731670  0.22613859  0.58141211  1
  S  S9  1  0.31268366  0.72613861  0.41858788  1
  S  S10  1  0.81108770  0.87411957  0.50000000  1
  S  S11  1  0.18891235  0.37411955  0.49999999  1
  Br  Br12  1  0.31258570  0.89997681  0.65717154  1
  Br  Br13  1  0.68741387  0.39997682  0.34282848  1
  Br  Br14  1  0.68741386  0.39997681  0.65717153  1
  Br  Br15  1  0.31258568  0.89997681  0.34282847  1
  Br  Br16  1  0.18882483  0.08321992  0.50000000  1
  Br  Br17  1  0.81117487  0.58321991  0.50000000  1
