# generated using pymatgen
data_PaCoSnO6
_symmetry_space_group_name_H-M   'P 1'
_cell_length_a   5.50459360
_cell_length_b   5.50459360
_cell_length_c   8.83774566
_cell_angle_alpha   90.00000000
_cell_angle_beta   90.00000000
_cell_angle_gamma   119.99999997
_symmetry_Int_Tables_number   1
_chemical_formula_structural   PaCoSnO6
_chemical_formula_sum   'Pa2 Co2 Sn2 O12'
_cell_volume   231.91169643
_cell_formula_units_Z   2
loop_
 _symmetry_equiv_pos_site_id
 _symmetry_equiv_pos_as_xyz
  1  'x, y, z'
loop_
 _atom_site_type_symbol
 _atom_site_label
 _atom_site_symmetry_multiplicity
 _atom_site_fract_x
 _atom_site_fract_y
 _atom_site_fract_z
 _atom_site_occupancy
  Pa  Pa0  1  0.33333333  0.66666667  0.25000000  1
  Pa  Pa1  1  0.66666667  0.33333333  0.75000000  1
  Co  Co2  1  0.00000000  0.00000000  0.00000000  1
  Co  Co3  1  0.00000000  0.00000000  0.50000000  1
  Sn  Sn4  1  0.66666667  0.33333333  0.25000000  1
  Sn  Sn5  1  0.33333333  0.66666667  0.75000000  1
  O  O6  1  0.67536645  0.66491729  0.12536757  1
  O  O7  1  0.98955084  0.32463255  0.12536757  1
  O  O8  1  0.32463355  0.98955184  0.62536757  1
  O  O9  1  0.01044916  0.67536745  0.87463243  1
  O  O10  1  0.33508171  0.32463255  0.37463243  1
  O  O11  1  0.98955084  0.66491729  0.37463243  1
  O  O12  1  0.66491829  0.98955184  0.87463243  1
  O  O13  1  0.67536645  0.01044816  0.37463243  1
  O  O14  1  0.01044916  0.33508271  0.62536757  1
  O  O15  1  0.33508171  0.01044816  0.12536757  1
  O  O16  1  0.66491829  0.67536745  0.62536757  1
  O  O17  1  0.32463355  0.33508271  0.87463243  1
