# generated using pymatgen
data_ThScPb
_symmetry_space_group_name_H-M   'P 1'
_cell_length_a   4.49315472
_cell_length_b   4.49369931
_cell_length_c   8.53035383
_cell_angle_alpha   90.00000000
_cell_angle_beta   90.00000000
_cell_angle_gamma   90.00000000
_symmetry_Int_Tables_number   1
_chemical_formula_structural   ThScPb
_chemical_formula_sum   'Th2 Sc2 Pb2'
_cell_volume   172.23540398
_cell_formula_units_Z   2
loop_
 _symmetry_equiv_pos_site_id
 _symmetry_equiv_pos_as_xyz
  1  'x, y, z'
loop_
 _atom_site_type_symbol
 _atom_site_label
 _atom_site_symmetry_multiplicity
 _atom_site_fract_x
 _atom_site_fract_y
 _atom_site_fract_z
 _atom_site_occupancy
  Th  Th0  1  0.00000000  0.50000000  0.85305794  1
  Th  Th1  1  0.50000000  0.00000000  0.14694206  1
  Sc  Sc2  1  0.50000000  0.50000000  0.50006902  1
  Sc  Sc3  1  0.00000000  0.00000000  0.49993098  1
  Pb  Pb4  1  0.00000000  0.50000000  0.24793208  1
  Pb  Pb5  1  0.50000000  0.00000000  0.75206792  1
