# generated using pymatgen
data_SiO2
_symmetry_space_group_name_H-M   'P 1'
_cell_length_a   6.56763747
_cell_length_b   6.56763747
_cell_length_c   6.56763746
_cell_angle_alpha   112.87340808
_cell_angle_beta   112.87340808
_cell_angle_gamma   112.87340801
_symmetry_Int_Tables_number   1
_chemical_formula_structural   SiO2
_chemical_formula_sum   'Si6 O12'
_cell_volume   185.61132738
_cell_formula_units_Z   6
loop_
 _symmetry_equiv_pos_site_id
 _symmetry_equiv_pos_as_xyz
  1  'x, y, z'
loop_
 _atom_site_type_symbol
 _atom_site_label
 _atom_site_symmetry_multiplicity
 _atom_site_fract_x
 _atom_site_fract_y
 _atom_site_fract_z
 _atom_site_occupancy
  Si  Si0  1  0.75000000  0.57775638  0.92224362  1
  Si  Si1  1  0.25000000  0.42224362  0.07775638  1
  Si  Si2  1  0.42224362  0.07775638  0.25000000  1
  Si  Si3  1  0.92224362  0.75000000  0.57775638  1
  Si  Si4  1  0.57775638  0.92224362  0.75000000  1
  Si  Si5  1  0.07775638  0.25000000  0.42224362  1
  O  O6  1  0.00000000  0.00000000  0.50000000  1
  O  O7  1  0.50000000  0.00000000  0.00000000  1
  O  O8  1  0.87180187  0.62819813  0.75000000  1
  O  O9  1  0.00000000  0.50000000  0.50000000  1
  O  O10  1  0.00000000  0.50000000  0.00000000  1
  O  O11  1  0.62819813  0.75000000  0.87180187  1
  O  O12  1  0.75000000  0.87180187  0.62819813  1
  O  O13  1  0.12819813  0.37180187  0.25000000  1
  O  O14  1  0.37180187  0.25000000  0.12819813  1
  O  O15  1  0.50000000  0.00000000  0.50000000  1
  O  O16  1  0.25000000  0.12819813  0.37180187  1
  O  O17  1  0.50000000  0.50000000  0.00000000  1
