# generated using pymatgen
data_Ce6AsS4
_symmetry_space_group_name_H-M   'P 1'
_cell_length_a   4.01377773
_cell_length_b   7.00640443
_cell_length_c   19.76857851
_cell_angle_alpha   90.00000000
_cell_angle_beta   90.00000000
_cell_angle_gamma   106.64472034
_symmetry_Int_Tables_number   1
_chemical_formula_structural   Ce6AsS4
_chemical_formula_sum   'Ce12 As2 S8'
_cell_volume   532.64086753
_cell_formula_units_Z   2
loop_
 _symmetry_equiv_pos_site_id
 _symmetry_equiv_pos_as_xyz
  1  'x, y, z'
loop_
 _atom_site_type_symbol
 _atom_site_label
 _atom_site_symmetry_multiplicity
 _atom_site_fract_x
 _atom_site_fract_y
 _atom_site_fract_z
 _atom_site_occupancy
  Ce  Ce0  1  0.50000000  0.00000000  0.00000000  1
  Ce  Ce1  1  0.50000000  0.00000000  0.50000000  1
  Ce  Ce2  1  0.04688094  0.09376088  0.32518604  1
  Ce  Ce3  1  0.95311906  0.90623912  0.67481396  1
  Ce  Ce4  1  0.95311906  0.90623912  0.82518604  1
  Ce  Ce5  1  0.04688094  0.09376088  0.17481396  1
  Ce  Ce6  1  0.77094439  0.54188877  0.41177534  1
  Ce  Ce7  1  0.22905561  0.45811123  0.58822466  1
  Ce  Ce8  1  0.22905561  0.45811123  0.91177534  1
  Ce  Ce9  1  0.77094439  0.54188877  0.08822466  1
  Ce  Ce10  1  0.33241604  0.66483107  0.25000000  1
  Ce  Ce11  1  0.66758396  0.33516893  0.75000000  1
  As  As12  1  0.67674435  0.35348770  0.25000000  1
  As  As13  1  0.32325565  0.64651230  0.75000000  1
  S  S14  1  0.86406585  0.72813170  0.54331768  1
  S  S15  1  0.41212694  0.82425487  0.12507505  1
  S  S16  1  0.13593415  0.27186830  0.45668232  1
  S  S17  1  0.58787306  0.17574513  0.87492495  1
  S  S18  1  0.86406585  0.72813170  0.95668232  1
  S  S19  1  0.13593415  0.27186830  0.04331768  1
  S  S20  1  0.58787306  0.17574513  0.62507505  1
  S  S21  1  0.41212694  0.82425487  0.37492495  1
