# generated using pymatgen
data_Ho8P3S4
_symmetry_space_group_name_H-M   'P 1'
_cell_length_a   7.81297394
_cell_length_b   7.82547096
_cell_length_c   7.82547128
_cell_angle_alpha   89.90620502
_cell_angle_beta   120.07723884
_cell_angle_gamma   120.07723352
_symmetry_Int_Tables_number   1
_chemical_formula_structural   Ho8P3S4
_chemical_formula_sum   'Ho8 P3 S4'
_cell_volume   337.80224870
_cell_formula_units_Z   1
loop_
 _symmetry_equiv_pos_site_id
 _symmetry_equiv_pos_as_xyz
  1  'x, y, z'
loop_
 _atom_site_type_symbol
 _atom_site_label
 _atom_site_symmetry_multiplicity
 _atom_site_fract_x
 _atom_site_fract_y
 _atom_site_fract_z
 _atom_site_occupancy
  Ho  Ho0  1  0.50045244  0.25208345  0.25208345  1
  Ho  Ho1  1  0.00000000  0.75165302  0.24834698  1
  Ho  Ho2  1  0.00442913  0.24904470  0.24904470  1
  Ho  Ho3  1  0.50000000  0.74724945  0.25275055  1
  Ho  Ho4  1  0.50000000  0.25275055  0.74724945  1
  Ho  Ho5  1  0.99557087  0.75095530  0.75095530  1
  Ho  Ho6  1  1.00000000  0.24834698  0.75165302  1
  Ho  Ho7  1  0.49954756  0.74791655  0.74791655  1
  P  P8  1  0.50000000  0.50000000  0.00000000  1
  P  P9  1  0.50000000  -0.00000000  0.50000000  1
  P  P10  1  0.50000000  0.50000000  0.50000000  1
  S  S11  1  0.50000000  0.00000000  0.00000000  1
  S  S12  1  0.00000000  0.50000000  -0.00000000  1
  S  S13  1  0.00000000  0.00000000  0.00000000  1
  S  S14  1  -0.00000000  0.00000000  0.50000000  1
