# generated using pymatgen
data_FeSbAs2
_symmetry_space_group_name_H-M   'P 1'
_cell_length_a   3.90163678
_cell_length_b   4.40548422
_cell_length_c   5.27969673
_cell_angle_alpha   114.60100293
_cell_angle_beta   90.00000000
_cell_angle_gamma   90.00000000
_symmetry_Int_Tables_number   1
_chemical_formula_structural   FeSbAs2
_chemical_formula_sum   'Fe1 Sb1 As2'
_cell_volume   82.51305327
_cell_formula_units_Z   1
loop_
 _symmetry_equiv_pos_site_id
 _symmetry_equiv_pos_as_xyz
  1  'x, y, z'
loop_
 _atom_site_type_symbol
 _atom_site_label
 _atom_site_symmetry_multiplicity
 _atom_site_fract_x
 _atom_site_fract_y
 _atom_site_fract_z
 _atom_site_occupancy
  As  As0  1  0.00000000  0.99304220  0.36108419  1
  As  As1  1  0.50000000  0.34075054  0.05696315  1
  Fe  Fe2  1  0.00000000  0.49447109  0.36395097  1
  Sb  Sb3  1  0.50000000  0.67173617  0.71800168  1
