# generated using pymatgen
data_ZrS
_symmetry_space_group_name_H-M   'P 1'
_cell_length_a   10.37871466
_cell_length_b   7.45742907
_cell_length_c   7.48573843
_cell_angle_alpha   90.00000000
_cell_angle_beta   90.00000000
_cell_angle_gamma   90.00000000
_symmetry_Int_Tables_number   1
_chemical_formula_structural   ZrS
_chemical_formula_sum   'Zr16 S16'
_cell_volume   579.38513858
_cell_formula_units_Z   16
loop_
 _symmetry_equiv_pos_site_id
 _symmetry_equiv_pos_as_xyz
  1  'x, y, z'
loop_
 _atom_site_type_symbol
 _atom_site_label
 _atom_site_symmetry_multiplicity
 _atom_site_fract_x
 _atom_site_fract_y
 _atom_site_fract_z
 _atom_site_occupancy
  Zr  Zr0  1  0.00000000  0.00000000  0.29180198  1
  Zr  Zr1  1  0.00000000  0.00000000  0.70819802  1
  Zr  Zr2  1  0.25000000  0.75000000  0.95819802  1
  Zr  Zr3  1  0.25000000  0.75000000  0.54180198  1
  Zr  Zr4  1  0.00000000  0.50000000  0.79180198  1
  Zr  Zr5  1  0.00000000  0.50000000  0.20819802  1
  Zr  Zr6  1  0.25000000  0.25000000  0.45819802  1
  Zr  Zr7  1  0.25000000  0.25000000  0.04180198  1
  Zr  Zr8  1  0.50000000  0.00000000  0.79180198  1
  Zr  Zr9  1  0.50000000  0.00000000  0.20819802  1
  Zr  Zr10  1  0.75000000  0.75000000  0.45819802  1
  Zr  Zr11  1  0.75000000  0.75000000  0.04180198  1
  Zr  Zr12  1  0.50000000  0.50000000  0.29180198  1
  Zr  Zr13  1  0.50000000  0.50000000  0.70819802  1
  Zr  Zr14  1  0.75000000  0.25000000  0.95819802  1
  Zr  Zr15  1  0.75000000  0.25000000  0.54180198  1
  S  S16  1  0.00000000  0.21606077  0.00000000  1
  S  S17  1  0.00000000  0.78393923  0.00000000  1
  S  S18  1  0.25000000  0.53393923  0.25000000  1
  S  S19  1  0.25000000  0.96606077  0.25000000  1
  S  S20  1  0.00000000  0.71606077  0.50000000  1
  S  S21  1  0.00000000  0.28393923  0.50000000  1
  S  S22  1  0.25000000  0.03393923  0.75000000  1
  S  S23  1  0.25000000  0.46606077  0.75000000  1
  S  S24  1  0.50000000  0.21606077  0.50000000  1
  S  S25  1  0.50000000  0.78393923  0.50000000  1
  S  S26  1  0.75000000  0.53393923  0.75000000  1
  S  S27  1  0.75000000  0.96606077  0.75000000  1
  S  S28  1  0.50000000  0.71606077  0.00000000  1
  S  S29  1  0.50000000  0.28393923  0.00000000  1
  S  S30  1  0.75000000  0.03393923  0.25000000  1
  S  S31  1  0.75000000  0.46606077  0.25000000  1
