# generated using pymatgen
data_Tl3Cr(SbTe3)2
_symmetry_space_group_name_H-M   'P 1'
_cell_length_a   7.52899612
_cell_length_b   7.52899612
_cell_length_c   8.37418731
_cell_angle_alpha   98.60529025
_cell_angle_beta   98.60529021
_cell_angle_gamma   120.03853813
_symmetry_Int_Tables_number   1
_chemical_formula_structural   Tl3Cr(SbTe3)2
_chemical_formula_sum   'Tl3 Cr1 Sb2 Te6'
_cell_volume   392.08588292
_cell_formula_units_Z   1
loop_
 _symmetry_equiv_pos_site_id
 _symmetry_equiv_pos_as_xyz
  1  'x, y, z'
loop_
 _atom_site_type_symbol
 _atom_site_label
 _atom_site_symmetry_multiplicity
 _atom_site_fract_x
 _atom_site_fract_y
 _atom_site_fract_z
 _atom_site_occupancy
  Tl  Tl0  1  0.17606846  0.82393154  0.50000000  1
  Tl  Tl1  1  0.82393154  0.17606846  0.50000000  1
  Tl  Tl2  1  0.50000000  0.50000000  0.50000000  1
  Cr  Cr3  1  0.00000000  0.00000000  0.00000000  1
  Sb  Sb4  1  0.33415082  0.66584918  0.00000000  1
  Sb  Sb5  1  0.66584918  0.33415082  0.00000000  1
  Te  Te6  1  0.93352944  0.63000607  0.79831986  1
  Te  Te7  1  0.76573401  0.76573401  0.20627640  1
  Te  Te8  1  0.06647056  0.36999393  0.20168014  1
  Te  Te9  1  0.63000607  0.93352944  0.79831986  1
  Te  Te10  1  0.23426599  0.23426599  0.79372360  1
  Te  Te11  1  0.36999393  0.06647056  0.20168014  1
