# generated using pymatgen
data_CoSnGe
_symmetry_space_group_name_H-M   'P 1'
_cell_length_a   4.20880289
_cell_length_b   4.20880289
_cell_length_c   4.20880289
_cell_angle_alpha   60.00000005
_cell_angle_beta   60.00000006
_cell_angle_gamma   60.00000004
_symmetry_Int_Tables_number   1
_chemical_formula_structural   CoSnGe
_chemical_formula_sum   'Co1 Sn1 Ge1'
_cell_volume   52.71822301
_cell_formula_units_Z   1
loop_
 _symmetry_equiv_pos_site_id
 _symmetry_equiv_pos_as_xyz
  1  'x, y, z'
loop_
 _atom_site_type_symbol
 _atom_site_label
 _atom_site_symmetry_multiplicity
 _atom_site_fract_x
 _atom_site_fract_y
 _atom_site_fract_z
 _atom_site_occupancy
  Ge  Ge0  1  0.50000000  0.50000000  0.50000000  1
  Co  Co1  1  0.25000000  0.25000000  0.25000000  1
  Sn  Sn2  1  0.00000000  0.00000000  0.00000000  1
