# generated using pymatgen
data_Sr2ScSi
_symmetry_space_group_name_H-M   'P 1'
_cell_length_a   11.10431241
_cell_length_b   11.10431241
_cell_length_c   11.10431241
_cell_angle_alpha   19.60286021
_cell_angle_beta   19.60286019
_cell_angle_gamma   19.60286021
_symmetry_Int_Tables_number   1
_chemical_formula_structural   Sr2ScSi
_chemical_formula_sum   'Sr2 Sc1 Si1'
_cell_volume   134.77267884
_cell_formula_units_Z   1
loop_
 _symmetry_equiv_pos_site_id
 _symmetry_equiv_pos_as_xyz
  1  'x, y, z'
loop_
 _atom_site_type_symbol
 _atom_site_label
 _atom_site_symmetry_multiplicity
 _atom_site_fract_x
 _atom_site_fract_y
 _atom_site_fract_z
 _atom_site_occupancy
  Sc  Sc0  1  0.75000000  0.75000000  0.75000000  1
  Si  Si1  1  0.25000000  0.25000000  0.25000000  1
  Sr  Sr2  1  0.98530433  0.98530433  0.98530433  1
  Sr  Sr3  1  0.51469567  0.51469567  0.51469567  1
