# generated using pymatgen
data_Rb3Mn(SbO4)2
_symmetry_space_group_name_H-M   'P 1'
_cell_length_a   6.04435611
_cell_length_b   6.04435611
_cell_length_c   8.08019033
_cell_angle_alpha   90.00000000
_cell_angle_beta   90.00000000
_cell_angle_gamma   119.99999996
_symmetry_Int_Tables_number   1
_chemical_formula_structural   Rb3Mn(SbO4)2
_chemical_formula_sum   'Rb3 Mn1 Sb2 O8'
_cell_volume   255.65383339
_cell_formula_units_Z   1
loop_
 _symmetry_equiv_pos_site_id
 _symmetry_equiv_pos_as_xyz
  1  'x, y, z'
loop_
 _atom_site_type_symbol
 _atom_site_label
 _atom_site_symmetry_multiplicity
 _atom_site_fract_x
 _atom_site_fract_y
 _atom_site_fract_z
 _atom_site_occupancy
  Rb  Rb0  1  0.33333333  0.66666667  0.70475214  1
  Rb  Rb1  1  0.66666667  0.33333333  0.29524786  1
  Rb  Rb2  1  0.00000000  0.00000000  0.00000000  1
  Mn  Mn3  1  0.00000000  0.00000000  0.50000000  1
  Sb  Sb4  1  0.33333333  0.66666667  0.26870502  1
  Sb  Sb5  1  0.66666667  0.33333333  0.73129498  1
  O  O6  1  0.33333333  0.66666667  0.03691136  1
  O  O7  1  0.66666667  0.33333333  0.96308864  1
  O  O8  1  0.15964798  0.84035202  0.34539240  1
  O  O9  1  0.84035202  0.15964798  0.65460760  1
  O  O10  1  0.15964798  0.31929597  0.34539240  1
  O  O11  1  0.84035202  0.68070403  0.65460760  1
  O  O12  1  0.68070403  0.84035202  0.34539240  1
  O  O13  1  0.31929597  0.15964798  0.65460760  1
