# generated using pymatgen
data_NpU4Se5
_symmetry_space_group_name_H-M   'P 1'
_cell_length_a   3.92655957
_cell_length_b   5.75098315
_cell_length_c   11.05891634
_cell_angle_alpha   105.07099937
_cell_angle_beta   100.22587246
_cell_angle_gamma   89.99999954
_symmetry_Int_Tables_number   1
_chemical_formula_structural   NpU4Se5
_chemical_formula_sum   'Np1 U4 Se5'
_cell_volume   237.02773776
_cell_formula_units_Z   1
loop_
 _symmetry_equiv_pos_site_id
 _symmetry_equiv_pos_as_xyz
  1  'x, y, z'
loop_
 _atom_site_type_symbol
 _atom_site_label
 _atom_site_symmetry_multiplicity
 _atom_site_fract_x
 _atom_site_fract_y
 _atom_site_fract_z
 _atom_site_occupancy
  Np  Np0  1  0.00000000  0.00000000  0.00000000  1
  U  U1  1  0.40034578  0.40034578  0.80069255  1
  U  U2  1  0.79916313  0.79916313  0.59832626  1
  U  U3  1  0.20083687  0.20083687  0.40167374  1
  U  U4  1  0.59965422  0.59965422  0.19930745  1
  Se  Se5  1  0.60031750  0.10031750  0.20063501  1
  Se  Se6  1  0.79999742  0.29999742  0.59999483  1
  Se  Se7  1  0.20000258  0.70000258  0.40000517  1
  Se  Se8  1  -0.00000000  0.50000000  -0.00000000  1
  Se  Se9  1  0.39968250  0.89968250  0.79936499  1
