# generated using pymatgen
data_ZnRe2Os
_symmetry_space_group_name_H-M   'P 1'
_cell_length_a   2.70650487
_cell_length_b   2.70650488
_cell_length_c   9.05736962
_cell_angle_alpha   90.00000000
_cell_angle_beta   90.00000000
_cell_angle_gamma   116.05558428
_symmetry_Int_Tables_number   1
_chemical_formula_structural   ZnRe2Os
_chemical_formula_sum   'Zn1 Re2 Os1'
_cell_volume   59.60382892
_cell_formula_units_Z   1
loop_
 _symmetry_equiv_pos_site_id
 _symmetry_equiv_pos_as_xyz
  1  'x, y, z'
loop_
 _atom_site_type_symbol
 _atom_site_label
 _atom_site_symmetry_multiplicity
 _atom_site_fract_x
 _atom_site_fract_y
 _atom_site_fract_z
 _atom_site_occupancy
  Os  Os0  1  0.50000000  0.50000000  0.74970233  1
  Re  Re1  1  0.00000000  0.00000000  0.99970788  1
  Re  Re2  1  0.50000000  0.50000000  0.24866493  1
  Zn  Zn3  1  0.00000000  0.00000000  0.50192485  1
