# generated using pymatgen
data_Ce2SmI6
_symmetry_space_group_name_H-M   'P 1'
_cell_length_a   7.78053036
_cell_length_b   7.78053035
_cell_length_c   8.66966274
_cell_angle_alpha   63.33830554
_cell_angle_beta   63.33830557
_cell_angle_gamma   59.99999999
_symmetry_Int_Tables_number   1
_chemical_formula_structural   Ce2SmI6
_chemical_formula_sum   'Ce2 Sm1 I6'
_cell_volume   388.74772739
_cell_formula_units_Z   1
loop_
 _symmetry_equiv_pos_site_id
 _symmetry_equiv_pos_as_xyz
  1  'x, y, z'
loop_
 _atom_site_type_symbol
 _atom_site_label
 _atom_site_symmetry_multiplicity
 _atom_site_fract_x
 _atom_site_fract_y
 _atom_site_fract_z
 _atom_site_occupancy
  Ce  Ce0  1  0.68413260  0.68413260  0.94760220  1
  Ce  Ce1  1  0.51848642  0.51848642  0.44453975  1
  Sm  Sm2  1  0.35490111  0.35490111  0.93529766  1
  I  I3  1  0.77502076  0.42230897  0.69796499  1
  I  I4  1  0.10470628  0.77502076  0.69796499  1
  I  I5  1  0.42230897  0.10470628  0.69796499  1
  I  I6  1  0.26439057  0.59791794  0.19387014  1
  I  I7  1  0.94382135  0.26439057  0.19387014  1
  I  I8  1  0.59791794  0.94382135  0.19387014  1
