# generated using pymatgen
data_Ca3Sn2Au3
_symmetry_space_group_name_H-M   'P 1'
_cell_length_a   6.08986451
_cell_length_b   8.85957016
_cell_length_c   8.85956958
_cell_angle_alpha   119.99999784
_cell_angle_beta   90.00000000
_cell_angle_gamma   90.00000000
_symmetry_Int_Tables_number   1
_chemical_formula_structural   Ca3Sn2Au3
_chemical_formula_sum   'Ca6 Sn4 Au6'
_cell_volume   413.96492618
_cell_formula_units_Z   2
loop_
 _symmetry_equiv_pos_site_id
 _symmetry_equiv_pos_as_xyz
  1  'x, y, z'
loop_
 _atom_site_type_symbol
 _atom_site_label
 _atom_site_symmetry_multiplicity
 _atom_site_fract_x
 _atom_site_fract_y
 _atom_site_fract_z
 _atom_site_occupancy
  Ca  Ca0  1  0.75000000  0.28493640  0.00000000  1
  Ca  Ca1  1  0.75000000  0.71506360  0.71506360  1
  Ca  Ca2  1  0.75000000  0.00000000  0.28493640  1
  Ca  Ca3  1  0.25000000  0.71506360  1.00000000  1
  Ca  Ca4  1  0.25000000  0.28493640  0.28493640  1
  Ca  Ca5  1  0.25000000  0.00000000  0.71506360  1
  Sn  Sn6  1  0.00000000  0.33333300  0.66666700  1
  Sn  Sn7  1  0.50000000  0.66666700  0.33333300  1
  Sn  Sn8  1  0.00000000  0.66666700  0.33333300  1
  Sn  Sn9  1  0.50000000  0.33333300  0.66666700  1
  Au  Au10  1  0.75000000  0.62780411  1.00000000  1
  Au  Au11  1  0.75000000  0.37219589  0.37219589  1
  Au  Au12  1  0.75000000  0.00000000  0.62780411  1
  Au  Au13  1  0.25000000  0.37219589  0.00000000  1
  Au  Au14  1  0.25000000  0.62780411  0.62780411  1
  Au  Au15  1  0.25000000  0.00000000  0.37219589  1
