# generated using pymatgen
data_Pm12Si6B
_symmetry_space_group_name_H-M   'P 1'
_cell_length_a   8.40219604
_cell_length_b   8.40219605
_cell_length_c   8.40219605
_cell_angle_alpha   98.83336321
_cell_angle_beta   98.83336321
_cell_angle_gamma   98.83336325
_symmetry_Int_Tables_number   1
_chemical_formula_structural   Pm12Si6B
_chemical_formula_sum   'Pm12 Si6 B1'
_cell_volume   569.57027896
_cell_formula_units_Z   1
loop_
 _symmetry_equiv_pos_site_id
 _symmetry_equiv_pos_as_xyz
  1  'x, y, z'
loop_
 _atom_site_type_symbol
 _atom_site_label
 _atom_site_symmetry_multiplicity
 _atom_site_fract_x
 _atom_site_fract_y
 _atom_site_fract_z
 _atom_site_occupancy
  Pm  Pm0  1  0.81365093  0.57168730  0.43067030  1
  Pm  Pm1  1  0.43067030  0.81365093  0.57168730  1
  Pm  Pm2  1  0.57168730  0.43067030  0.81365093  1
  Pm  Pm3  1  0.18634907  0.42831270  0.56932970  1
  Pm  Pm4  1  0.56932970  0.18634907  0.42831270  1
  Pm  Pm5  1  0.42831270  0.56932970  0.18634907  1
  Pm  Pm6  1  0.06360019  0.96104262  0.31358048  1
  Pm  Pm7  1  0.03895738  0.68641952  0.93639981  1
  Pm  Pm8  1  0.68641952  0.93639981  0.03895738  1
  Pm  Pm9  1  0.93639981  0.03895738  0.68641952  1
  Pm  Pm10  1  0.96104262  0.31358048  0.06360019  1
  Pm  Pm11  1  0.31358048  0.06360019  0.96104262  1
  Si  Si12  1  0.70146799  0.87355770  0.38423071  1
  Si  Si13  1  0.61576929  0.29853201  0.12644230  1
  Si  Si14  1  0.12644230  0.61576929  0.29853201  1
  Si  Si15  1  0.29853201  0.12644230  0.61576929  1
  Si  Si16  1  0.38423071  0.70146799  0.87355770  1
  Si  Si17  1  0.87355770  0.38423071  0.70146799  1
  B  B18  1  0.00000000  0.00000000  0.00000000  1
