# generated using pymatgen
data_Dy3CuIr2
_symmetry_space_group_name_H-M   'P 1'
_cell_length_a   3.42463568
_cell_length_b   3.42463568
_cell_length_c   10.51700554
_cell_angle_alpha   90.00000000
_cell_angle_beta   90.00000000
_cell_angle_gamma   90.00000000
_symmetry_Int_Tables_number   1
_chemical_formula_structural   Dy3CuIr2
_chemical_formula_sum   'Dy3 Cu1 Ir2'
_cell_volume   123.34480335
_cell_formula_units_Z   1
loop_
 _symmetry_equiv_pos_site_id
 _symmetry_equiv_pos_as_xyz
  1  'x, y, z'
loop_
 _atom_site_type_symbol
 _atom_site_label
 _atom_site_symmetry_multiplicity
 _atom_site_fract_x
 _atom_site_fract_y
 _atom_site_fract_z
 _atom_site_occupancy
  Ir  Ir0  1  0.50000000  0.50000000  0.83253034  1
  Ir  Ir1  1  0.50000000  0.50000000  0.16746966  1
  Cu  Cu2  1  0.50000000  0.50000000  0.50000000  1
  Dy  Dy3  1  0.00000000  0.00000000  0.00000000  1
  Dy  Dy4  1  0.00000000  0.00000000  0.67437538  1
  Dy  Dy5  1  0.00000000  0.00000000  0.32562462  1
