# generated using pymatgen
data_SmErCl6
_symmetry_space_group_name_H-M   'P 1'
_cell_length_a   6.76857278
_cell_length_b   6.76894545
_cell_length_c   7.30115144
_cell_angle_alpha   62.37404368
_cell_angle_beta   62.38234424
_cell_angle_gamma   60.00428743
_symmetry_Int_Tables_number   1
_chemical_formula_structural   SmErCl6
_chemical_formula_sum   'Sm1 Er1 Cl6'
_cell_volume   244.69172593
_cell_formula_units_Z   1
loop_
 _symmetry_equiv_pos_site_id
 _symmetry_equiv_pos_as_xyz
  1  'x, y, z'
loop_
 _atom_site_type_symbol
 _atom_site_label
 _atom_site_symmetry_multiplicity
 _atom_site_fract_x
 _atom_site_fract_y
 _atom_site_fract_z
 _atom_site_occupancy
  Sm  Sm0  1  0.00000000  0.00000000  0.00000000  1
  Er  Er1  1  0.50000000  0.50000000  0.50000000  1
  Cl  Cl2  1  0.10905767  0.40087214  0.74578493  1
  Cl  Cl3  1  0.74418846  0.10904401  0.74588049  1
  Cl  Cl4  1  0.59930527  0.25568876  0.25424684  1
  Cl  Cl5  1  0.25581154  0.89095599  0.25411951  1
  Cl  Cl6  1  0.89094233  0.59912786  0.25421507  1
  Cl  Cl7  1  0.40069473  0.74431124  0.74575316  1
