# generated using pymatgen
data_Nb2NiSe6
_symmetry_space_group_name_H-M   'P 1'
_cell_length_a   3.40724868
_cell_length_b   7.19711361
_cell_length_c   9.43501659
_cell_angle_alpha   81.60066878
_cell_angle_beta   79.60112306
_cell_angle_gamma   76.33415925
_symmetry_Int_Tables_number   1
_chemical_formula_structural   Nb2NiSe6
_chemical_formula_sum   'Nb2 Ni1 Se6'
_cell_volume   219.82754791
_cell_formula_units_Z   1
loop_
 _symmetry_equiv_pos_site_id
 _symmetry_equiv_pos_as_xyz
  1  'x, y, z'
loop_
 _atom_site_type_symbol
 _atom_site_label
 _atom_site_symmetry_multiplicity
 _atom_site_fract_x
 _atom_site_fract_y
 _atom_site_fract_z
 _atom_site_occupancy
  Ni  Ni0  1  0.00000013  0.99999995  0.00000112  1
  Nb  Nb1  1  0.32594438  0.06314724  0.28505103  1
  Nb  Nb2  1  0.67405531  0.93685304  0.71495226  1
  Se  Se3  1  0.80085732  0.27490393  0.12324936  1
  Se  Se4  1  0.19914302  0.72509478  0.87675410  1
  Se  Se5  1  0.33315031  0.80262933  0.53095303  1
  Se  Se6  1  0.99061089  0.79897624  0.21865635  1
  Se  Se7  1  0.00938867  0.20102501  0.78134631  1
  Se  Se8  1  0.66684996  0.19737049  0.46904944  1
