# generated using pymatgen
data_Ta2V9Rh
_symmetry_space_group_name_H-M   'P 1'
_cell_length_a   5.02369646
_cell_length_b   5.02369646
_cell_length_c   8.61881710
_cell_angle_alpha   73.05595142
_cell_angle_beta   73.05595145
_cell_angle_gamma   59.99999997
_symmetry_Int_Tables_number   1
_chemical_formula_structural   Ta2V9Rh
_chemical_formula_sum   'Ta2 V9 Rh1'
_cell_volume   177.38879680
_cell_formula_units_Z   1
loop_
 _symmetry_equiv_pos_site_id
 _symmetry_equiv_pos_as_xyz
  1  'x, y, z'
loop_
 _atom_site_type_symbol
 _atom_site_label
 _atom_site_symmetry_multiplicity
 _atom_site_fract_x
 _atom_site_fract_y
 _atom_site_fract_z
 _atom_site_occupancy
  Ta  Ta0  1  0.85522786  0.85522786  0.43431543  1
  Ta  Ta1  1  0.14477214  0.14477214  0.56568457  1
  V  V2  1  0.66714754  0.66714754  0.99855839  1
  V  V3  1  0.33285246  0.33285246  0.00144161  1
  V  V4  1  0.50000000  0.50000000  0.50000000  1
  V  V5  1  0.41502798  0.41502798  0.25118880  1
  V  V6  1  0.91875624  0.41502798  0.25118880  1
  V  V7  1  0.41502798  0.91875624  0.25118880  1
  V  V8  1  0.58497202  0.58497202  0.74881120  1
  V  V9  1  0.58497202  0.08124376  0.74881120  1
  V  V10  1  0.08124376  0.58497202  0.74881120  1
  Rh  Rh11  1  0.00000000  0.00000000  0.00000000  1
