# generated using pymatgen
data_CaCe(HoAs2)2
_symmetry_space_group_name_H-M   'P 1'
_cell_length_a   4.16928257
_cell_length_b   7.21102360
_cell_length_c   7.16870653
_cell_angle_alpha   70.95736512
_cell_angle_beta   89.99971855
_cell_angle_gamma   89.99968111
_symmetry_Int_Tables_number   1
_chemical_formula_structural   CaCe(HoAs2)2
_chemical_formula_sum   'Ca1 Ce1 Ho2 As4'
_cell_volume   203.73127566
_cell_formula_units_Z   1
loop_
 _symmetry_equiv_pos_site_id
 _symmetry_equiv_pos_as_xyz
  1  'x, y, z'
loop_
 _atom_site_type_symbol
 _atom_site_label
 _atom_site_symmetry_multiplicity
 _atom_site_fract_x
 _atom_site_fract_y
 _atom_site_fract_z
 _atom_site_occupancy
  Ca  Ca0  1  0.00000050  0.49999400  0.50000450  1
  Ce  Ce1  1  0.49999900  0.50000150  0.99999950  1
  Ho  Ho2  1  -0.00000000  0.00000100  0.99999900  1
  Ho  Ho3  1  0.50000000  0.00000100  0.49999900  1
  As  As4  1  0.00000300  0.75466606  0.75196398  1
  As  As5  1  0.99999600  0.24533544  0.24803452  1
  As  As6  1  0.50000200  0.75626729  0.24122799  1
  As  As7  1  0.49999700  0.24373371  0.75877101  1
