# generated using pymatgen
data_Hf(ZnGe)2
_symmetry_space_group_name_H-M   'P 1'
_cell_length_a   7.26486497
_cell_length_b   7.26486497
_cell_length_c   3.34858522
_cell_angle_alpha   90.00000000
_cell_angle_beta   90.00000000
_cell_angle_gamma   90.00000000
_symmetry_Int_Tables_number   1
_chemical_formula_structural   Hf(ZnGe)2
_chemical_formula_sum   'Hf2 Zn4 Ge4'
_cell_volume   176.73251153
_cell_formula_units_Z   2
loop_
 _symmetry_equiv_pos_site_id
 _symmetry_equiv_pos_as_xyz
  1  'x, y, z'
loop_
 _atom_site_type_symbol
 _atom_site_label
 _atom_site_symmetry_multiplicity
 _atom_site_fract_x
 _atom_site_fract_y
 _atom_site_fract_z
 _atom_site_occupancy
  Ge  Ge0  1  0.35197667  0.85197667  0.00000000  1
  Ge  Ge1  1  0.85197667  0.64802333  0.00000000  1
  Ge  Ge2  1  0.64802333  0.14802333  0.00000000  1
  Ge  Ge3  1  0.14802333  0.35197667  0.00000000  1
  Hf  Hf4  1  0.00000000  0.00000000  0.00000000  1
  Hf  Hf5  1  0.50000000  0.50000000  0.00000000  1
  Zn  Zn6  1  0.14950021  0.64950021  0.50000000  1
  Zn  Zn7  1  0.64950021  0.85049979  0.50000000  1
  Zn  Zn8  1  0.85049979  0.35049979  0.50000000  1
  Zn  Zn9  1  0.35049979  0.14950021  0.50000000  1
