# generated using pymatgen
data_Y6CSe2S3
_symmetry_space_group_name_H-M   'P 1'
_cell_length_a   3.87719562
_cell_length_b   7.95835829
_cell_length_c   8.88395066
_cell_angle_alpha   102.20183417
_cell_angle_beta   102.60412386
_cell_angle_gamma   90.00000000
_symmetry_Int_Tables_number   1
_chemical_formula_structural   Y6CSe2S3
_chemical_formula_sum   'Y6 C1 Se2 S3'
_cell_volume   261.16877559
_cell_formula_units_Z   1
loop_
 _symmetry_equiv_pos_site_id
 _symmetry_equiv_pos_as_xyz
  1  'x, y, z'
loop_
 _atom_site_type_symbol
 _atom_site_label
 _atom_site_symmetry_multiplicity
 _atom_site_fract_x
 _atom_site_fract_y
 _atom_site_fract_z
 _atom_site_occupancy
  Y  Y0  1  0.35482823  0.93591834  0.70965647  1
  Y  Y1  1  0.65684212  0.59545452  0.31368525  1
  Y  Y2  1  0.64517177  0.06408166  0.29034353  1
  Y  Y3  1  0.99846800  0.21321911  0.99693499  1
  Y  Y4  1  0.00153200  0.78678089  0.00306501  1
  Y  Y5  1  0.34315788  0.40454548  0.68631475  1
  C  C6  1  0.50000000  0.00000000  0.00000000  1
  Se  Se7  1  0.82997876  0.66294456  0.65995753  1
  Se  Se8  1  0.17002124  0.33705544  0.34004247  1
  S  S9  1  0.50000000  0.50000000  0.00000000  1
  S  S10  1  0.83094695  0.16144991  0.66189390  1
  S  S11  1  0.16905305  0.83855009  0.33810610  1
