# generated using pymatgen
data_Tl3SbAs
_symmetry_space_group_name_H-M   'P 1'
_cell_length_a   7.50992770
_cell_length_b   7.50992769
_cell_length_c   7.50213480
_cell_angle_alpha   114.26779269
_cell_angle_beta   115.48565979
_cell_angle_gamma   99.18285731
_symmetry_Int_Tables_number   1
_chemical_formula_structural   Tl3SbAs
_chemical_formula_sum   'Tl6 Sb2 As2'
_cell_volume   317.76308272
_cell_formula_units_Z   2
loop_
 _symmetry_equiv_pos_site_id
 _symmetry_equiv_pos_as_xyz
  1  'x, y, z'
loop_
 _atom_site_type_symbol
 _atom_site_label
 _atom_site_symmetry_multiplicity
 _atom_site_fract_x
 _atom_site_fract_y
 _atom_site_fract_z
 _atom_site_occupancy
  Tl  Tl0  1  0.80536216  0.04211964  0.24168211  1
  Tl  Tl1  1  0.19956247  0.43631995  0.24168211  1
  Tl  Tl2  1  0.80043753  0.56368005  0.75831789  1
  Tl  Tl3  1  0.76374390  0.49842589  0.26216979  1
  Tl  Tl4  1  0.19463784  0.95788036  0.75831789  1
  Tl  Tl5  1  0.23625610  0.50157411  0.73783021  1
  Sb  Sb6  1  0.75234704  0.00256645  0.75491349  1
  Sb  Sb7  1  0.24765296  0.99743355  0.24508651  1
  As  As8  1  0.50173356  0.76817993  0.26991349  1
  As  As9  1  0.49826644  0.23182007  0.73008651  1
