# generated using pymatgen
data_Nd3TmSb2
_symmetry_space_group_name_H-M   'P 1'
_cell_length_a   7.21149074
_cell_length_b   7.96481918
_cell_length_c   9.01449354
_cell_angle_alpha   116.21741272
_cell_angle_beta   113.57781756
_cell_angle_gamma   90.00000000
_symmetry_Int_Tables_number   1
_chemical_formula_structural   Nd3TmSb2
_chemical_formula_sum   'Nd6 Tm2 Sb4'
_cell_volume   415.78331882
_cell_formula_units_Z   2
loop_
 _symmetry_equiv_pos_site_id
 _symmetry_equiv_pos_as_xyz
  1  'x, y, z'
loop_
 _atom_site_type_symbol
 _atom_site_label
 _atom_site_symmetry_multiplicity
 _atom_site_fract_x
 _atom_site_fract_y
 _atom_site_fract_z
 _atom_site_occupancy
  Nd  Nd0  1  0.50000000  0.25000000  0.00000000  1
  Nd  Nd1  1  0.50000000  0.75000000  0.00000000  1
  Nd  Nd2  1  0.79061486  0.04061386  0.58122872  1
  Nd  Nd3  1  0.20938514  0.45938614  0.41877128  1
  Nd  Nd4  1  0.20938514  0.95938614  0.41877128  1
  Nd  Nd5  1  0.79061486  0.54061386  0.58122872  1
  Tm  Tm6  1  0.00000000  0.50000000  0.00000000  1
  Tm  Tm7  1  0.00000000  0.00000000  0.00000000  1
  Sb  Sb8  1  0.53924457  0.35603320  0.71206739  1
  Sb  Sb9  1  0.82717617  0.14396680  0.28793261  1
  Sb  Sb10  1  0.17282383  0.85603320  0.71206739  1
  Sb  Sb11  1  0.46075543  0.64396680  0.28793261  1
