# generated using pymatgen
data_PmDyRhBr
_symmetry_space_group_name_H-M   'P 1'
_cell_length_a   4.02960848
_cell_length_b   4.02899037
_cell_length_c   8.13754179
_cell_angle_alpha   90.00728603
_cell_angle_beta   104.33544795
_cell_angle_gamma   120.00483852
_symmetry_Int_Tables_number   1
_chemical_formula_structural   PmDyRhBr
_chemical_formula_sum   'Pm1 Dy1 Rh1 Br1'
_cell_volume   109.63084922
_cell_formula_units_Z   1
loop_
 _symmetry_equiv_pos_site_id
 _symmetry_equiv_pos_as_xyz
  1  'x, y, z'
loop_
 _atom_site_type_symbol
 _atom_site_label
 _atom_site_symmetry_multiplicity
 _atom_site_fract_x
 _atom_site_fract_y
 _atom_site_fract_z
 _atom_site_occupancy
  Pm  Pm0  1  0.50800537  0.15178636  0.67528770  1
  Dy  Dy1  1  0.09846890  0.94710317  0.06112134  1
  Rh  Rh2  1  0.30790101  0.55178885  0.87518880  1
  Br  Br3  1  0.96352473  0.38012162  0.35806217  1
