# generated using pymatgen
data_UGa4Ni15
_symmetry_space_group_name_H-M   'P 1'
_cell_length_a   3.66745885
_cell_length_b   3.66745885
_cell_length_c   17.79742853
_cell_angle_alpha   90.00000000
_cell_angle_beta   90.00000000
_cell_angle_gamma   90.00000000
_symmetry_Int_Tables_number   1
_chemical_formula_structural   UGa4Ni15
_chemical_formula_sum   'U1 Ga4 Ni15'
_cell_volume   239.37994169
_cell_formula_units_Z   1
loop_
 _symmetry_equiv_pos_site_id
 _symmetry_equiv_pos_as_xyz
  1  'x, y, z'
loop_
 _atom_site_type_symbol
 _atom_site_label
 _atom_site_symmetry_multiplicity
 _atom_site_fract_x
 _atom_site_fract_y
 _atom_site_fract_z
 _atom_site_occupancy
  U  U0  1  0.00000000  0.00000000  0.00000000  1
  Ga  Ga1  1  0.00000000  0.00000000  0.21019470  1
  Ga  Ga2  1  0.00000000  0.00000000  0.40283324  1
  Ga  Ga3  1  0.00000000  0.00000000  0.59716676  1
  Ga  Ga4  1  0.00000000  0.00000000  0.78980530  1
  Ni  Ni5  1  0.50000000  0.50000000  0.00000000  1
  Ni  Ni6  1  0.50000000  0.50000000  0.20583613  1
  Ni  Ni7  1  0.50000000  0.50000000  0.40201358  1
  Ni  Ni8  1  0.50000000  0.50000000  0.59798642  1
  Ni  Ni9  1  0.50000000  0.50000000  0.79416387  1
  Ni  Ni10  1  0.50000000  0.00000000  0.10523125  1
  Ni  Ni11  1  0.50000000  0.00000000  0.30503113  1
  Ni  Ni12  1  0.50000000  0.00000000  0.50000000  1
  Ni  Ni13  1  0.50000000  0.00000000  0.69496887  1
  Ni  Ni14  1  0.50000000  0.00000000  0.89476875  1
  Ni  Ni15  1  0.00000000  0.50000000  0.10523125  1
  Ni  Ni16  1  0.00000000  0.50000000  0.30503113  1
  Ni  Ni17  1  0.00000000  0.50000000  0.50000000  1
  Ni  Ni18  1  0.00000000  0.50000000  0.69496887  1
  Ni  Ni19  1  0.00000000  0.50000000  0.89476875  1
