# generated using pymatgen
data_SrScMo2
_symmetry_space_group_name_H-M   'P 1'
_cell_length_a   3.09879173
_cell_length_b   3.09879173
_cell_length_c   10.06609415
_cell_angle_alpha   90.00000000
_cell_angle_beta   90.00000000
_cell_angle_gamma   111.80338631
_symmetry_Int_Tables_number   1
_chemical_formula_structural   SrScMo2
_chemical_formula_sum   'Sr1 Sc1 Mo2'
_cell_volume   89.74510619
_cell_formula_units_Z   1
loop_
 _symmetry_equiv_pos_site_id
 _symmetry_equiv_pos_as_xyz
  1  'x, y, z'
loop_
 _atom_site_type_symbol
 _atom_site_label
 _atom_site_symmetry_multiplicity
 _atom_site_fract_x
 _atom_site_fract_y
 _atom_site_fract_z
 _atom_site_occupancy
  Mo  Mo0  1  0.00000000  0.00000000  0.04855712  1
  Mo  Mo1  1  0.50000000  0.50000000  0.22811774  1
  Sc  Sc2  1  0.00000000  0.00000000  0.44712146  1
  Sr  Sr3  1  0.50000000  0.50000000  0.77620369  1
