# generated using pymatgen
data_Ga(NiHg)2
_symmetry_space_group_name_H-M   'P 1'
_cell_length_a   7.77417039
_cell_length_b   7.77417039
_cell_length_c   2.88090651
_cell_angle_alpha   90.00000000
_cell_angle_beta   90.00000000
_cell_angle_gamma   90.00000000
_symmetry_Int_Tables_number   1
_chemical_formula_structural   Ga(NiHg)2
_chemical_formula_sum   'Ga2 Ni4 Hg4'
_cell_volume   174.11543613
_cell_formula_units_Z   2
loop_
 _symmetry_equiv_pos_site_id
 _symmetry_equiv_pos_as_xyz
  1  'x, y, z'
loop_
 _atom_site_type_symbol
 _atom_site_label
 _atom_site_symmetry_multiplicity
 _atom_site_fract_x
 _atom_site_fract_y
 _atom_site_fract_z
 _atom_site_occupancy
  Ni  Ni0  1  0.11722234  0.61722234  0.50000000  1
  Ni  Ni1  1  0.61722234  0.88277766  0.50000000  1
  Ni  Ni2  1  0.88277766  0.38277766  0.50000000  1
  Ni  Ni3  1  0.38277766  0.11722234  0.50000000  1
  Hg  Hg4  1  0.32456917  0.82456917  0.00000000  1
  Hg  Hg5  1  0.82456917  0.67543083  0.00000000  1
  Hg  Hg6  1  0.67543083  0.17543083  0.00000000  1
  Hg  Hg7  1  0.17543083  0.32456917  0.00000000  1
  Ga  Ga8  1  0.00000000  0.00000000  0.00000000  1
  Ga  Ga9  1  0.50000000  0.50000000  0.00000000  1
