# generated using pymatgen
data_CoBiPdO6
_symmetry_space_group_name_H-M   'P 1'
_cell_length_a   5.10772311
_cell_length_b   5.10772311
_cell_length_c   9.29036442
_cell_angle_alpha   90.00000000
_cell_angle_beta   90.00000000
_cell_angle_gamma   119.99999994
_symmetry_Int_Tables_number   1
_chemical_formula_structural   CoBiPdO6
_chemical_formula_sum   'Co2 Bi2 Pd2 O12'
_cell_volume   209.90272359
_cell_formula_units_Z   2
loop_
 _symmetry_equiv_pos_site_id
 _symmetry_equiv_pos_as_xyz
  1  'x, y, z'
loop_
 _atom_site_type_symbol
 _atom_site_label
 _atom_site_symmetry_multiplicity
 _atom_site_fract_x
 _atom_site_fract_y
 _atom_site_fract_z
 _atom_site_occupancy
  Co  Co0  1  0.66666667  0.33333333  0.25000000  1
  Co  Co1  1  0.33333333  0.66666667  0.75000000  1
  Bi  Bi2  1  0.00000000  0.00000000  0.00000000  1
  Bi  Bi3  1  0.00000000  0.00000000  0.50000000  1
  Pd  Pd4  1  0.33333333  0.66666667  0.25000000  1
  Pd  Pd5  1  0.66666667  0.33333333  0.75000000  1
  O  O6  1  0.63892333  0.62326474  0.13403108  1
  O  O7  1  0.98434141  0.36107567  0.13403108  1
  O  O8  1  0.36107667  0.98434241  0.63403108  1
  O  O9  1  0.01565859  0.63892433  0.86596892  1
  O  O10  1  0.37673426  0.36107567  0.36596892  1
  O  O11  1  0.98434141  0.62326474  0.36596892  1
  O  O12  1  0.62326574  0.98434241  0.86596892  1
  O  O13  1  0.63892333  0.01565759  0.36596892  1
  O  O14  1  0.01565859  0.37673526  0.63403108  1
  O  O15  1  0.37673426  0.01565759  0.13403108  1
  O  O16  1  0.62326574  0.63892433  0.63403108  1
  O  O17  1  0.36107667  0.37673526  0.86596892  1
