# generated using pymatgen
data_SrPr(CuS2)2
_symmetry_space_group_name_H-M   'P 1'
_cell_length_a   6.66562882
_cell_length_b   6.09567073
_cell_length_c   6.09567073
_cell_angle_alpha   66.28686489
_cell_angle_beta   56.85500176
_cell_angle_gamma   56.85500183
_symmetry_Int_Tables_number   1
_chemical_formula_structural   SrPr(CuS2)2
_chemical_formula_sum   'Sr1 Pr1 Cu2 S4'
_cell_volume   171.74224058
_cell_formula_units_Z   1
loop_
 _symmetry_equiv_pos_site_id
 _symmetry_equiv_pos_as_xyz
  1  'x, y, z'
loop_
 _atom_site_type_symbol
 _atom_site_label
 _atom_site_symmetry_multiplicity
 _atom_site_fract_x
 _atom_site_fract_y
 _atom_site_fract_z
 _atom_site_occupancy
  Sr  Sr0  1  0.50000000  0.49999996  0.50000004  1
  Pr  Pr1  1  0.00000000  0.00000001  0.99999999  1
  Cu  Cu2  1  0.24999142  0.25000877  0.25000848  1
  Cu  Cu3  1  0.75000858  0.74999152  0.74999123  1
  S  S4  1  0.47525592  0.99919365  0.52474376  1
  S  S5  1  0.99919242  0.00080617  0.47525632  1
  S  S6  1  0.00080658  0.52474368  0.99919383  1
  S  S7  1  0.52474508  0.47525624  0.00080635  1
