# generated using pymatgen
data_Er3Sb2C
_symmetry_space_group_name_H-M   'P 1'
_cell_length_a   6.57040883
_cell_length_b   7.23708895
_cell_length_c   7.23708895
_cell_angle_alpha   114.74713396
_cell_angle_beta   100.02851481
_cell_angle_gamma   100.02851491
_symmetry_Int_Tables_number   1
_chemical_formula_structural   Er3Sb2C
_chemical_formula_sum   'Er6 Sb4 C2'
_cell_volume   295.77521105
_cell_formula_units_Z   2
loop_
 _symmetry_equiv_pos_site_id
 _symmetry_equiv_pos_as_xyz
  1  'x, y, z'
loop_
 _atom_site_type_symbol
 _atom_site_label
 _atom_site_symmetry_multiplicity
 _atom_site_fract_x
 _atom_site_fract_y
 _atom_site_fract_z
 _atom_site_occupancy
  Er  Er0  1  0.99579569  0.25383569  0.39252947  1
  Er  Er1  1  0.49579569  0.39252947  0.25383569  1
  Er  Er2  1  -0.00000000  0.50000000  -0.00000000  1
  Er  Er3  1  0.00420431  0.74616431  0.60747053  1
  Er  Er4  1  0.50000000  -0.00000000  0.50000000  1
  Er  Er5  1  0.50420431  0.60747053  0.74616431  1
  Sb  Sb6  1  0.25000000  0.92580382  0.07419618  1
  Sb  Sb7  1  0.25000000  0.22563411  0.77436589  1
  Sb  Sb8  1  0.75000000  0.07419618  0.92580382  1
  Sb  Sb9  1  0.75000000  0.77436589  0.22563411  1
  C  C10  1  0.25000000  0.56607436  0.43392564  1
  C  C11  1  0.75000000  0.43392564  0.56607436  1
