# generated using pymatgen
data_LiCuO
_symmetry_space_group_name_H-M   'P 1'
_cell_length_a   5.13268000
_cell_length_b   3.59430000
_cell_length_c   10.04111000
_cell_angle_alpha   90.00000000
_cell_angle_beta   106.79614002
_cell_angle_gamma   90.00000000
_symmetry_Int_Tables_number   1
_chemical_formula_structural   LiCuO
_chemical_formula_sum   'Li4 Cu4 O4'
_cell_volume   177.33970154
_cell_formula_units_Z   4
loop_
 _symmetry_equiv_pos_site_id
 _symmetry_equiv_pos_as_xyz
  1  'x, y, z'
loop_
 _atom_site_type_symbol
 _atom_site_label
 _atom_site_symmetry_multiplicity
 _atom_site_fract_x
 _atom_site_fract_y
 _atom_site_fract_z
 _atom_site_occupancy
  Li  Li0  1  0.83600000  0.00000000  0.20258000  1
  Li  Li1  1  0.16400000  0.00000000  0.79742000  1
  Li  Li2  1  0.83600000  0.50000000  0.70258000  1
  Li  Li3  1  0.16400000  0.50000000  0.29742000  1
  Cu  Cu4  1  0.00000000  0.50000000  0.00000000  1
  Cu  Cu5  1  -0.00000000  0.00000000  0.50000000  1
  Cu  Cu6  1  0.50000000  0.00000000  0.50000000  1
  Cu  Cu7  1  0.50000000  0.50000000  0.00000000  1
  O  O8  1  0.82762000  0.00000000  0.63800000  1
  O  O9  1  0.17238000  0.00000000  0.36200000  1
  O  O10  1  0.82762000  0.50000000  0.13800000  1
  O  O11  1  0.17238000  0.50000000  0.86200000  1
