# generated using pymatgen
data_Li2Pr2NiGe4
_symmetry_space_group_name_H-M   'P 1'
_cell_length_a   6.26308318
_cell_length_b   6.26308318
_cell_length_c   6.26308318
_cell_angle_alpha   88.85892045
_cell_angle_beta   120.66097483
_cell_angle_gamma   120.66097486
_symmetry_Int_Tables_number   1
_chemical_formula_structural   Li2Pr2NiGe4
_chemical_formula_sum   'Li2 Pr2 Ni1 Ge4'
_cell_volume   171.94733130
_cell_formula_units_Z   1
loop_
 _symmetry_equiv_pos_site_id
 _symmetry_equiv_pos_as_xyz
  1  'x, y, z'
loop_
 _atom_site_type_symbol
 _atom_site_label
 _atom_site_symmetry_multiplicity
 _atom_site_fract_x
 _atom_site_fract_y
 _atom_site_fract_z
 _atom_site_occupancy
  Li  Li0  1  1.00000000  0.71320099  0.71320099  1
  Li  Li1  1  -0.00000000  0.28679901  0.28679901  1
  Pr  Pr2  1  0.50000000  0.75000000  0.25000000  1
  Pr  Pr3  1  0.50000000  0.25000000  0.75000000  1
  Ni  Ni4  1  0.00000000  0.00000000  0.00000000  1
  Ge  Ge5  1  0.00000000  0.72353323  0.27646677  1
  Ge  Ge6  1  0.44706546  0.72353223  0.72353223  1
  Ge  Ge7  1  -0.00000000  0.27646677  0.72353323  1
  Ge  Ge8  1  0.55293454  0.27646777  0.27646777  1
