# generated using pymatgen
data_Cs2In2PbAu
_symmetry_space_group_name_H-M   'P 1'
_cell_length_a   7.42822514
_cell_length_b   7.25487632
_cell_length_c   10.36843460
_cell_angle_alpha   110.47838443
_cell_angle_beta   110.99051740
_cell_angle_gamma   90.00000000
_symmetry_Int_Tables_number   1
_chemical_formula_structural   Cs2In2PbAu
_chemical_formula_sum   'Cs4 In4 Pb2 Au2'
_cell_volume   483.67303651
_cell_formula_units_Z   2
loop_
 _symmetry_equiv_pos_site_id
 _symmetry_equiv_pos_as_xyz
  1  'x, y, z'
loop_
 _atom_site_type_symbol
 _atom_site_label
 _atom_site_symmetry_multiplicity
 _atom_site_fract_x
 _atom_site_fract_y
 _atom_site_fract_z
 _atom_site_occupancy
  Cs  Cs0  1  0.39844765  0.16943201  0.33886502  1
  Cs  Cs1  1  0.60155235  0.83056799  0.66113498  1
  Cs  Cs2  1  0.05958263  0.33056799  0.66113498  1
  Cs  Cs3  1  0.94041737  0.66943201  0.33886502  1
  In  In4  1  0.79472443  0.08546011  0.17091921  1
  In  In5  1  0.37619478  0.58546011  0.17091921  1
  In  In6  1  0.62380522  0.41453989  0.82908079  1
  In  In7  1  0.20527557  0.91453989  0.82908079  1
  Pb  Pb8  1  0.00000000  0.75000000  0.00000000  1
  Pb  Pb9  1  0.00000000  0.25000000  0.00000000  1
  Au  Au10  1  0.50000000  0.75000000  0.00000000  1
  Au  Au11  1  0.50000000  0.25000000  0.00000000  1
