# generated using pymatgen
data_LaZnPt4
_symmetry_space_group_name_H-M   'P 1'
_cell_length_a   5.42082954
_cell_length_b   5.42081915
_cell_length_c   5.42085363
_cell_angle_alpha   59.99822479
_cell_angle_beta   59.99828788
_cell_angle_gamma   59.99802538
_symmetry_Int_Tables_number   1
_chemical_formula_structural   LaZnPt4
_chemical_formula_sum   'La1 Zn1 Pt4'
_cell_volume   112.63294119
_cell_formula_units_Z   1
loop_
 _symmetry_equiv_pos_site_id
 _symmetry_equiv_pos_as_xyz
  1  'x, y, z'
loop_
 _atom_site_type_symbol
 _atom_site_label
 _atom_site_symmetry_multiplicity
 _atom_site_fract_x
 _atom_site_fract_y
 _atom_site_fract_z
 _atom_site_occupancy
  Zn  Zn0  1  0.24999784  0.24999793  0.24999977  1
  Pt  Pt1  1  0.12748391  0.62417323  0.62417273  1
  Pt  Pt2  1  0.62417400  0.62417291  0.12748292  1
  Pt  Pt3  1  0.62417437  0.12748280  0.62417237  1
  Pt  Pt4  1  0.62417309  0.62417166  0.62417106  1
  La  La5  1  0.99999979  0.99999947  0.99999916  1
