# generated using pymatgen
data_K3Li5
_symmetry_space_group_name_H-M   'P 1'
_cell_length_a   7.60210750
_cell_length_b   7.60210750
_cell_length_c   17.96824024
_cell_angle_alpha   90.00000000
_cell_angle_beta   90.00000000
_cell_angle_gamma   119.99999999
_symmetry_Int_Tables_number   1
_chemical_formula_structural   K3Li5
_chemical_formula_sum   'K3 Li5'
_cell_volume   899.29916596
_cell_formula_units_Z   1
loop_
 _symmetry_equiv_pos_site_id
 _symmetry_equiv_pos_as_xyz
  1  'x, y, z'
loop_
 _atom_site_type_symbol
 _atom_site_label
 _atom_site_symmetry_multiplicity
 _atom_site_fract_x
 _atom_site_fract_y
 _atom_site_fract_z
 _atom_site_occupancy
  K  K0  1  0.65926827  0.00000000  0.60164099  1
  K  K1  1  -0.00000000  0.65926830  0.60164099  1
  K  K2  1  0.34073170  0.34073170  0.60164099  1
  Li  Li3  1  0.22901727  0.00000000  0.44072749  1
  Li  Li4  1  -0.00000000  0.22901726  0.44072750  1
  Li  Li5  1  0.77098273  0.77098275  0.44072749  1
  Li  Li6  1  0.33333333  0.66666667  0.43644728  1
  Li  Li7  1  0.66666667  0.33333333  0.43644728  1
