# generated using pymatgen
data_AlCl3
_symmetry_space_group_name_H-M   'P 1'
_cell_length_a   8.88707067
_cell_length_b   3.39634025
_cell_length_c   18.06857342
_cell_angle_alpha   90.00000000
_cell_angle_beta   90.00000000
_cell_angle_gamma   90.00000000
_symmetry_Int_Tables_number   1
_chemical_formula_structural   AlCl3
_chemical_formula_sum   'Al2 Cl6'
_cell_volume   545.37307169
_cell_formula_units_Z   2
loop_
 _symmetry_equiv_pos_site_id
 _symmetry_equiv_pos_as_xyz
  1  'x, y, z'
loop_
 _atom_site_type_symbol
 _atom_site_label
 _atom_site_symmetry_multiplicity
 _atom_site_fract_x
 _atom_site_fract_y
 _atom_site_fract_z
 _atom_site_occupancy
  Al  Al0  1  0.00000000  0.78678465  0.50000125  1
  Al  Al1  1  0.50000000  0.78678465  0.50000125  1
  Cl  Cl2  1  0.55428000  0.28670024  0.58491091  1
  Cl  Cl3  1  0.05424000  0.28689320  0.41508159  1
  Cl  Cl4  1  0.44576000  0.28689320  0.41508159  1
  Cl  Cl5  1  0.94572000  0.28670024  0.58491091  1
  Cl  Cl6  1  0.25000000  0.78673706  0.54745106  1
  Cl  Cl7  1  0.75000000  0.78734809  0.45256144  1
