# generated using pymatgen
data_Li5SbPb4
_symmetry_space_group_name_H-M   'P 1'
_cell_length_a   3.58250746
_cell_length_b   3.58249735
_cell_length_c   17.41969842
_cell_angle_alpha   90.00000000
_cell_angle_beta   90.00000000
_cell_angle_gamma   90.00000000
_symmetry_Int_Tables_number   1
_chemical_formula_structural   Li5SbPb4
_chemical_formula_sum   'Li5 Sb1 Pb4'
_cell_volume   223.57004448
_cell_formula_units_Z   1
loop_
 _symmetry_equiv_pos_site_id
 _symmetry_equiv_pos_as_xyz
  1  'x, y, z'
loop_
 _atom_site_type_symbol
 _atom_site_label
 _atom_site_symmetry_multiplicity
 _atom_site_fract_x
 _atom_site_fract_y
 _atom_site_fract_z
 _atom_site_occupancy
  Li  Li0  1  0.50000000  0.50000000  0.09166790  1
  Li  Li1  1  0.50000000  0.50000000  0.29955851  1
  Li  Li2  1  0.50000000  0.50000000  0.50000000  1
  Li  Li3  1  0.50000000  0.50000000  0.70044149  1
  Li  Li4  1  0.50000000  0.50000000  0.90833210  1
  Sb  Sb5  1  0.00000000  0.00000000  0.00000000  1
  Pb  Pb6  1  0.00000000  0.00000000  0.19817027  1
  Pb  Pb7  1  0.00000000  0.00000000  0.39968072  1
  Pb  Pb8  1  0.00000000  0.00000000  0.60031928  1
  Pb  Pb9  1  0.00000000  0.00000000  0.80182973  1
