# generated using pymatgen
data_YCo2Tc
_symmetry_space_group_name_H-M   'P 1'
_cell_length_a   3.08965892
_cell_length_b   3.09148385
_cell_length_c   7.29771956
_cell_angle_alpha   64.84444346
_cell_angle_beta   90.00000000
_cell_angle_gamma   90.00000000
_symmetry_Int_Tables_number   1
_chemical_formula_structural   YCo2Tc
_chemical_formula_sum   'Y1 Co2 Tc1'
_cell_volume   63.09408258
_cell_formula_units_Z   1
loop_
 _symmetry_equiv_pos_site_id
 _symmetry_equiv_pos_as_xyz
  1  'x, y, z'
loop_
 _atom_site_type_symbol
 _atom_site_label
 _atom_site_symmetry_multiplicity
 _atom_site_fract_x
 _atom_site_fract_y
 _atom_site_fract_z
 _atom_site_occupancy
  Co  Co0  1  0.00000000  0.94459249  0.05580816  1
  Co  Co1  1  0.00000000  0.55540751  0.44419183  1
  Tc  Tc2  1  0.50000000  0.25000000  0.25000000  1
  Y  Y3  1  0.50000000  0.75000000  0.75000000  1
