# generated using pymatgen
data_SmGaIr4
_symmetry_space_group_name_H-M   'P 1'
_cell_length_a   5.31231597
_cell_length_b   5.31231597
_cell_length_c   5.31231598
_cell_angle_alpha   59.99999996
_cell_angle_beta   59.99999998
_cell_angle_gamma   59.99999994
_symmetry_Int_Tables_number   1
_chemical_formula_structural   SmGaIr4
_chemical_formula_sum   'Sm1 Ga1 Ir4'
_cell_volume   106.00752563
_cell_formula_units_Z   1
loop_
 _symmetry_equiv_pos_site_id
 _symmetry_equiv_pos_as_xyz
  1  'x, y, z'
loop_
 _atom_site_type_symbol
 _atom_site_label
 _atom_site_symmetry_multiplicity
 _atom_site_fract_x
 _atom_site_fract_y
 _atom_site_fract_z
 _atom_site_occupancy
  Ir  Ir0  1  0.62563346  0.62563246  0.12310161  1
  Ir  Ir1  1  0.62563346  0.12310161  0.62563246  1
  Ir  Ir2  1  0.62563346  0.62563246  0.62563246  1
  Ir  Ir3  1  0.12310261  0.62563246  0.62563246  1
  Ga  Ga4  1  0.00000000  0.00000000  0.00000000  1
  Sm  Sm5  1  0.25000000  0.25000000  0.25000000  1
