# generated using pymatgen
data_SmHoIrPt
_symmetry_space_group_name_H-M   'P 1'
_cell_length_a   3.86805061
_cell_length_b   4.31196419
_cell_length_c   5.71181903
_cell_angle_alpha   90.00000000
_cell_angle_beta   109.79163756
_cell_angle_gamma   90.00000000
_symmetry_Int_Tables_number   1
_chemical_formula_structural   SmHoIrPt
_chemical_formula_sum   'Sm1 Ho1 Ir1 Pt1'
_cell_volume   89.63944091
_cell_formula_units_Z   1
loop_
 _symmetry_equiv_pos_site_id
 _symmetry_equiv_pos_as_xyz
  1  'x, y, z'
loop_
 _atom_site_type_symbol
 _atom_site_label
 _atom_site_symmetry_multiplicity
 _atom_site_fract_x
 _atom_site_fract_y
 _atom_site_fract_z
 _atom_site_occupancy
  Sm  Sm0  1  0.14476677  0.00000000  0.28953354  1
  Ho  Ho1  1  0.85978634  0.50000000  0.71957268  1
  Ir  Ir2  1  0.41219894  0.00000000  0.82439788  1
  Pt  Pt3  1  0.58324895  0.50000000  0.16649789  1
