# generated using pymatgen
data_Ho2MgSb
_symmetry_space_group_name_H-M   'P 1'
_cell_length_a   4.09316037
_cell_length_b   4.09316037
_cell_length_c   8.79016322
_cell_angle_alpha   76.53648153
_cell_angle_beta   76.53648153
_cell_angle_gamma   60.00000005
_symmetry_Int_Tables_number   1
_chemical_formula_structural   Ho2MgSb
_chemical_formula_sum   'Ho2 Mg1 Sb1'
_cell_volume   122.84406113
_cell_formula_units_Z   1
loop_
 _symmetry_equiv_pos_site_id
 _symmetry_equiv_pos_as_xyz
  1  'x, y, z'
loop_
 _atom_site_type_symbol
 _atom_site_label
 _atom_site_symmetry_multiplicity
 _atom_site_fract_x
 _atom_site_fract_y
 _atom_site_fract_z
 _atom_site_occupancy
  Sb  Sb0  1  0.00000000  0.00000000  0.00000000  1
  Mg  Mg1  1  0.50000000  0.50000000  0.50000000  1
  Ho  Ho2  1  0.26041131  0.26041131  0.21876706  1
  Ho  Ho3  1  0.73958869  0.73958869  0.78123294  1
