# generated using pymatgen
data_LiAlSiO4
_symmetry_space_group_name_H-M   'P 1'
_cell_length_a   5.15743412
_cell_length_b   8.21561970
_cell_length_c   8.30093543
_cell_angle_alpha   73.73924050
_cell_angle_beta   90.00000000
_cell_angle_gamma   90.00000000
_symmetry_Int_Tables_number   1
_chemical_formula_structural   LiAlSiO4
_chemical_formula_sum   'Li4 Al4 Si4 O16'
_cell_volume   337.65334706
_cell_formula_units_Z   4
loop_
 _symmetry_equiv_pos_site_id
 _symmetry_equiv_pos_as_xyz
  1  'x, y, z'
loop_
 _atom_site_type_symbol
 _atom_site_label
 _atom_site_symmetry_multiplicity
 _atom_site_fract_x
 _atom_site_fract_y
 _atom_site_fract_z
 _atom_site_occupancy
  Li  Li0  1  0.33081586  0.49992499  0.72666031  1
  Li  Li1  1  0.15680823  0.97359131  0.41629198  1
  Li  Li2  1  0.84319177  0.97359131  0.91629198  1
  Li  Li3  1  0.66918414  0.49992499  0.22666031  1
  Al  Al4  1  0.17843846  0.36783467  0.12528979  1
  Al  Al5  1  0.66964855  0.86688557  0.28330049  1
  Al  Al6  1  0.33035145  0.86688557  0.78330049  1
  Al  Al7  1  0.82156154  0.36783467  0.62528979  1
  Si  Si8  1  0.82799659  0.74042355  0.66273188  1
  Si  Si9  1  0.67392796  0.24623870  0.99944026  1
  Si  Si10  1  0.17200341  0.74042355  0.16273188  1
  Si  Si11  1  0.32607204  0.24623870  0.49944026  1
  O  O12  1  0.37821601  0.32321952  0.97091260  1
  O  O13  1  0.86277809  0.71629978  0.21657721  1
  O  O14  1  0.70806945  0.05455586  0.12349522  1
  O  O15  1  0.84800749  0.37949454  0.07117067  1
  O  O16  1  0.70409542  0.55910224  0.65734976  1
  O  O17  1  0.22240233  0.21930543  0.32158132  1
  O  O18  1  0.33541158  0.81533180  0.29740058  1
  O  O19  1  0.62178399  0.32321952  0.47091260  1
  O  O20  1  0.66458842  0.81533180  0.79740058  1
  O  O21  1  0.80663141  0.87679205  0.47479893  1
  O  O22  1  0.29193055  0.05455586  0.62349522  1
  O  O23  1  0.19336859  0.87679205  0.97479893  1
  O  O24  1  0.29590458  0.55910224  0.15734976  1
  O  O25  1  0.15199251  0.37949454  0.57117067  1
  O  O26  1  0.13722191  0.71629978  0.71657721  1
  O  O27  1  0.77759767  0.21930543  0.82158132  1
