# generated using pymatgen
data_Rb3U3InSe8
_symmetry_space_group_name_H-M   'P 1'
_cell_length_a   8.52557037
_cell_length_b   8.52712299
_cell_length_c   9.41196193
_cell_angle_alpha   116.94705259
_cell_angle_beta   90.00000000
_cell_angle_gamma   119.99397697
_symmetry_Int_Tables_number   1
_chemical_formula_structural   Rb3U3InSe8
_chemical_formula_sum   'Rb3 U3 In1 Se8'
_cell_volume   505.00663948
_cell_formula_units_Z   1
loop_
 _symmetry_equiv_pos_site_id
 _symmetry_equiv_pos_as_xyz
  1  'x, y, z'
loop_
 _atom_site_type_symbol
 _atom_site_label
 _atom_site_symmetry_multiplicity
 _atom_site_fract_x
 _atom_site_fract_y
 _atom_site_fract_z
 _atom_site_occupancy
  Rb  Rb0  1  0.00000000  0.00000000  0.00000000  1
  Rb  Rb1  1  0.00000000  0.50000000  0.00000000  1
  Rb  Rb2  1  0.50000000  0.50000000  0.00000000  1
  U  U3  1  0.50000000  0.00000000  0.50000000  1
  U  U4  1  0.50000000  0.50000000  0.50000000  1
  U  U5  1  0.00000000  0.50000000  0.50000000  1
  In  In6  1  0.00000000  0.00000000  0.50000000  1
  Se  Se7  1  0.26747970  0.53495939  0.30333666  1
  Se  Se8  1  0.73252030  0.46504061  0.69666334  1
  Se  Se9  1  0.76366087  0.52732274  0.30904021  1
  Se  Se10  1  0.23633913  0.47267726  0.69095979  1
  Se  Se11  1  0.76415113  0.04649257  0.30966537  1
  Se  Se12  1  0.23584887  0.95350743  0.69033463  1
  Se  Se13  1  0.28234144  0.04649257  0.30966537  1
  Se  Se14  1  0.71765856  0.95350743  0.69033463  1
