# generated using pymatgen
data_KSr2(LaTe2)3
_symmetry_space_group_name_H-M   'P 1'
_cell_length_a   4.63754257
_cell_length_b   9.48714400
_cell_length_c   10.54299395
_cell_angle_alpha   104.40353667
_cell_angle_beta   102.70520365
_cell_angle_gamma   90.00000000
_symmetry_Int_Tables_number   1
_chemical_formula_structural   KSr2(LaTe2)3
_chemical_formula_sum   'K1 Sr2 La3 Te6'
_cell_volume   437.54418310
_cell_formula_units_Z   1
loop_
 _symmetry_equiv_pos_site_id
 _symmetry_equiv_pos_as_xyz
  1  'x, y, z'
loop_
 _atom_site_type_symbol
 _atom_site_label
 _atom_site_symmetry_multiplicity
 _atom_site_fract_x
 _atom_site_fract_y
 _atom_site_fract_z
 _atom_site_occupancy
  K  K0  1  0.50000000  0.00000000  0.00000000  1
  Sr  Sr1  1  0.83435794  0.66969493  0.66871588  1
  Sr  Sr2  1  0.16564206  0.33030507  0.33128412  1
  La  La3  1  0.50000000  0.50000000  0.00000000  1
  La  La4  1  0.83480789  0.16860978  0.66961579  1
  La  La5  1  0.16519211  0.83139022  0.33038421  1
  Te  Te6  1  0.32846289  0.92065679  0.65692579  1
  Te  Te7  1  0.66582317  0.58544399  0.33164733  1
  Te  Te8  1  0.67153711  0.07934321  0.34307421  1
  Te  Te9  1  0.99826878  0.26284727  0.99653656  1
  Te  Te10  1  0.00173122  0.73715273  0.00346344  1
  Te  Te11  1  0.33417683  0.41455601  0.66835267  1
