# generated using pymatgen
data_Na12Cl5O3
_symmetry_space_group_name_H-M   'P 1'
_cell_length_a   14.16307816
_cell_length_b   14.16307817
_cell_length_c   14.16307817
_cell_angle_alpha   109.47122059
_cell_angle_beta   109.47122065
_cell_angle_gamma   109.47122065
_symmetry_Int_Tables_number   1
_chemical_formula_structural   Na12Cl5O3
_chemical_formula_sum   'Na48 Cl20 O12'
_cell_volume   2187.01149231
_cell_formula_units_Z   4
loop_
 _symmetry_equiv_pos_site_id
 _symmetry_equiv_pos_as_xyz
  1  'x, y, z'
loop_
 _atom_site_type_symbol
 _atom_site_label
 _atom_site_symmetry_multiplicity
 _atom_site_fract_x
 _atom_site_fract_y
 _atom_site_fract_z
 _atom_site_occupancy
  O  O0  1  0.75000000  0.37500000  0.12500000  1
  O  O1  1  0.87500000  0.75000000  0.12500000  1
  O  O2  1  0.37500000  0.75000000  0.62500000  1
  O  O3  1  0.25000000  0.12500000  0.37500000  1
  O  O4  1  0.87500000  0.12500000  0.25000000  1
  O  O5  1  0.37500000  0.62500000  0.25000000  1
  O  O6  1  0.62500000  0.37500000  0.75000000  1
  O  O7  1  0.12500000  0.87500000  0.75000000  1
  O  O8  1  0.75000000  0.87500000  0.62500000  1
  O  O9  1  0.62500000  0.25000000  0.37500000  1
  O  O10  1  0.12500000  0.25000000  0.87500000  1
  O  O11  1  0.25000000  0.62500000  0.87500000  1
  Cl  Cl12  1  0.12500000  0.37500000  0.25000000  1
  Cl  Cl13  1  0.00000000  0.50000000  0.00000000  1
  Cl  Cl14  1  0.00000000  0.00000000  0.00000000  1
  Cl  Cl15  1  0.37500000  0.25000000  0.12500000  1
  Cl  Cl16  1  0.50000000  0.00000000  0.50000000  1
  Cl  Cl17  1  0.50000000  0.50000000  0.00000000  1
  Cl  Cl18  1  0.12500000  0.75000000  0.37500000  1
  Cl  Cl19  1  0.75000000  0.12500000  0.87500000  1
  Cl  Cl20  1  0.75000000  0.62500000  0.37500000  1
  Cl  Cl21  1  0.37500000  0.12500000  0.75000000  1
  Cl  Cl22  1  0.62500000  0.87500000  0.25000000  1
  Cl  Cl23  1  0.50000000  0.50000000  0.50000000  1
  Cl  Cl24  1  0.50000000  0.00000000  0.00000000  1
  Cl  Cl25  1  0.00000000  0.00000000  0.50000000  1
  Cl  Cl26  1  0.25000000  0.37500000  0.62500000  1
  Cl  Cl27  1  0.25000000  0.87500000  0.12500000  1
  Cl  Cl28  1  -0.00000000  0.50000000  0.50000000  1
  Cl  Cl29  1  0.87500000  0.25000000  0.62500000  1
  Cl  Cl30  1  0.62500000  0.75000000  0.87500000  1
  Cl  Cl31  1  0.87500000  0.62500000  0.75000000  1
  Na  Na32  1  0.63654661  0.19323561  0.00211152  1
  Na  Na33  1  0.36556491  0.50211152  0.30887591  1
  Na  Na34  1  0.99788848  0.30676439  0.36345339  1
  Na  Na35  1  0.50211152  0.13654661  0.19323561  1
  Na  Na36  1  0.44331100  0.63654661  0.63443509  1
  Na  Na37  1  0.99788848  0.69112409  0.13443509  1
  Na  Na38  1  0.36556491  0.86345339  0.55668900  1
  Na  Na39  1  0.19112409  0.05668900  0.19323561  1
  Na  Na40  1  0.69112409  0.99788848  0.63443509  1
  Na  Na41  1  0.63654661  0.44331100  0.13443509  1
  Na  Na42  1  0.86345339  0.49788848  0.30676439  1
  Na  Na43  1  0.86556491  0.80887591  0.00211152  1
  Na  Na44  1  0.19323561  0.63654661  0.50211152  1
  Na  Na45  1  0.30676439  0.30887591  0.94331100  1
  Na  Na46  1  0.94331100  0.80887591  0.30676439  1
  Na  Na47  1  0.55668900  0.19323561  0.69112409  1
  Na  Na48  1  0.94331100  0.13443509  0.13654661  1
  Na  Na49  1  0.49788848  0.63443509  0.19112409  1
  Na  Na50  1  0.86556491  0.05668900  0.36345339  1
  Na  Na51  1  0.19323561  0.55668900  0.19112409  1
  Na  Na52  1  0.30676439  0.99788848  0.86345339  1
  Na  Na53  1  0.69112409  0.69323561  0.55668900  1
  Na  Na54  1  0.80887591  0.86556491  0.50211152  1
  Na  Na55  1  0.86345339  0.36556491  0.05668900  1
  Na  Na56  1  0.30887591  0.30676439  0.44331100  1
  Na  Na57  1  0.19112409  0.13443509  0.49788848  1
  Na  Na58  1  0.13654661  0.63443509  0.94331100  1
  Na  Na59  1  0.13443509  0.94331100  0.63654661  1
  Na  Na60  1  0.69323561  0.00211152  0.13654661  1
  Na  Na61  1  0.80676439  0.44331100  0.80887591  1
  Na  Na62  1  0.50211152  0.36556491  0.80887591  1
  Na  Na63  1  0.44331100  0.80676439  0.30887591  1
  Na  Na64  1  0.05668900  0.86556491  0.86345339  1
  Na  Na65  1  0.05668900  0.19112409  0.69323561  1
  Na  Na66  1  0.80676439  0.36345339  0.49788848  1
  Na  Na67  1  0.13443509  0.19112409  0.99788848  1
  Na  Na68  1  0.69323561  0.69112409  0.05668900  1
  Na  Na69  1  0.30887591  0.00211152  0.36556491  1
  Na  Na70  1  0.36345339  0.55668900  0.86556491  1
  Na  Na71  1  0.13654661  0.50211152  0.69323561  1
  Na  Na72  1  0.80887591  0.94331100  0.80676439  1
  Na  Na73  1  0.63443509  0.13654661  0.44331100  1
  Na  Na74  1  0.49788848  0.86345339  0.80676439  1
  Na  Na75  1  0.00211152  0.30887591  0.86556491  1
  Na  Na76  1  0.55668900  0.36345339  0.36556491  1
  Na  Na77  1  0.00211152  0.69323561  0.63654661  1
  Na  Na78  1  0.63443509  0.49788848  0.69112409  1
  Na  Na79  1  0.36345339  0.80676439  0.99788848  1
