# generated using pymatgen
data_Rb2ZrCuSe4
_symmetry_space_group_name_H-M   'P 1'
_cell_length_a   8.78722149
_cell_length_b   8.78722391
_cell_length_c   8.12916371
_cell_angle_alpha   117.46209058
_cell_angle_beta   117.46217442
_cell_angle_gamma   95.65133693
_symmetry_Int_Tables_number   1
_chemical_formula_structural   Rb2ZrCuSe4
_chemical_formula_sum   'Rb4 Zr2 Cu2 Se8'
_cell_volume   453.97464717
_cell_formula_units_Z   2
loop_
 _symmetry_equiv_pos_site_id
 _symmetry_equiv_pos_as_xyz
  1  'x, y, z'
loop_
 _atom_site_type_symbol
 _atom_site_label
 _atom_site_symmetry_multiplicity
 _atom_site_fract_x
 _atom_site_fract_y
 _atom_site_fract_z
 _atom_site_occupancy
  Rb  Rb0  1  0.50000318  0.00000450  0.00000345  1
  Rb  Rb1  1  0.49999856  0.00000007  0.49999735  1
  Rb  Rb2  1  0.00000019  0.00000285  0.50000009  1
  Rb  Rb3  1  0.50000085  0.49999604  0.99999969  1
  Zr  Zr4  1  0.00000249  0.50000171  0.00000513  1
  Zr  Zr5  1  0.99999551  0.49999539  0.49999187  1
  Cu  Cu6  1  0.49999809  0.50000240  0.50000345  1
  Cu  Cu7  1  0.99999451  0.00000028  0.99999647  1
  Se  Se8  1  0.21124235  0.70266906  0.95660802  1
  Se  Se9  1  0.79732643  0.28876295  0.54339194  1
  Se  Se10  1  0.20267031  0.71122808  0.45660690  1
  Se  Se11  1  0.78877414  0.29733111  0.04339408  1
  Se  Se12  1  0.78699381  0.71643047  0.93717006  1
  Se  Se13  1  0.78356578  0.71300625  0.56283184  1
  Se  Se14  1  0.21643104  0.28700045  0.43716858  1
  Se  Se15  1  0.21300176  0.28356939  0.06283210  1
