# generated using pymatgen
data_MgBe
_symmetry_space_group_name_H-M   'P 1'
_cell_length_a   2.79241631
_cell_length_b   4.61431476
_cell_length_c   5.12282422
_cell_angle_alpha   110.97565380
_cell_angle_beta   106.00864496
_cell_angle_gamma   90.15968167
_symmetry_Int_Tables_number   1
_chemical_formula_structural   MgBe
_chemical_formula_sum   'Mg2 Be2'
_cell_volume   58.86357908
_cell_formula_units_Z   2
loop_
 _symmetry_equiv_pos_site_id
 _symmetry_equiv_pos_as_xyz
  1  'x, y, z'
loop_
 _atom_site_type_symbol
 _atom_site_label
 _atom_site_symmetry_multiplicity
 _atom_site_fract_x
 _atom_site_fract_y
 _atom_site_fract_z
 _atom_site_occupancy
  Be  Be0  1  0.33921255  0.12638535  0.17834569  1
  Be  Be1  1  0.66078745  0.87361465  0.82165431  1
  Mg  Mg2  1  0.90002024  0.67481161  0.29513533  1
  Mg  Mg3  1  0.09997976  0.32518839  0.70486467  1
