# generated using pymatgen
data_Cr2MoAs
_symmetry_space_group_name_H-M   'P 1'
_cell_length_a   4.82527495
_cell_length_b   4.89136766
_cell_length_c   2.78353037
_cell_angle_alpha   78.23882897
_cell_angle_beta   80.58318276
_cell_angle_gamma   116.53151334
_symmetry_Int_Tables_number   1
_chemical_formula_structural   Cr2MoAs
_chemical_formula_sum   'Cr2 Mo1 As1'
_cell_volume   55.05882700
_cell_formula_units_Z   1
loop_
 _symmetry_equiv_pos_site_id
 _symmetry_equiv_pos_as_xyz
  1  'x, y, z'
loop_
 _atom_site_type_symbol
 _atom_site_label
 _atom_site_symmetry_multiplicity
 _atom_site_fract_x
 _atom_site_fract_y
 _atom_site_fract_z
 _atom_site_occupancy
  As  As0  1  0.50000000  0.50000000  0.00000000  1
  Cr  Cr1  1  0.00000000  0.00000000  0.00000000  1
  Cr  Cr2  1  0.50000000  -0.00000000  0.50000000  1
  Mo  Mo3  1  0.00000000  0.50000000  0.50000000  1
