# generated using pymatgen
data_Th2Zn(GaNi4)3
_symmetry_space_group_name_H-M   'P 1'
_cell_length_a   6.40054374
_cell_length_b   6.40054375
_cell_length_c   6.40054374
_cell_angle_alpha   83.28846504
_cell_angle_beta   83.28846501
_cell_angle_gamma   83.28846498
_symmetry_Int_Tables_number   1
_chemical_formula_structural   Th2Zn(GaNi4)3
_chemical_formula_sum   'Th2 Zn1 Ga3 Ni12'
_cell_volume   257.20948217
_cell_formula_units_Z   1
loop_
 _symmetry_equiv_pos_site_id
 _symmetry_equiv_pos_as_xyz
  1  'x, y, z'
loop_
 _atom_site_type_symbol
 _atom_site_label
 _atom_site_symmetry_multiplicity
 _atom_site_fract_x
 _atom_site_fract_y
 _atom_site_fract_z
 _atom_site_occupancy
  Th  Th0  1  0.65440616  0.65440616  0.65440616  1
  Th  Th1  1  0.34559384  0.34559384  0.34559384  1
  Zn  Zn2  1  0.00000000  0.00000000  0.00000000  1
  Ga  Ga3  1  0.50000000  0.00000000  0.00000000  1
  Ga  Ga4  1  0.00000000  0.50000000  0.00000000  1
  Ga  Ga5  1  0.00000000  0.00000000  0.50000000  1
  Ni  Ni6  1  0.39408690  0.39408690  0.89386845  1
  Ni  Ni7  1  0.80660456  0.80660456  0.28471399  1
  Ni  Ni8  1  0.28471399  0.80660456  0.80660456  1
  Ni  Ni9  1  0.89386845  0.39408690  0.39408690  1
  Ni  Ni10  1  0.80660456  0.28471399  0.80660456  1
  Ni  Ni11  1  0.39408690  0.89386845  0.39408690  1
  Ni  Ni12  1  0.60591310  0.60591310  0.10613155  1
  Ni  Ni13  1  0.19339544  0.19339544  0.71528601  1
  Ni  Ni14  1  0.71528601  0.19339544  0.19339544  1
  Ni  Ni15  1  0.10613155  0.60591310  0.60591310  1
  Ni  Ni16  1  0.19339544  0.71528601  0.19339544  1
  Ni  Ni17  1  0.60591310  0.10613155  0.60591310  1
