# generated using pymatgen
data_Sm2S3
_symmetry_space_group_name_H-M   'P 1'
_cell_length_a   8.49580344
_cell_length_b   8.49580344
_cell_length_c   14.05191585
_cell_angle_alpha   107.59583129
_cell_angle_beta   107.59583129
_cell_angle_gamma   90.00000000
_symmetry_Int_Tables_number   1
_chemical_formula_structural   Sm2S3
_chemical_formula_sum   'Sm16 S24'
_cell_volume   916.88797219
_cell_formula_units_Z   8
loop_
 _symmetry_equiv_pos_site_id
 _symmetry_equiv_pos_as_xyz
  1  'x, y, z'
loop_
 _atom_site_type_symbol
 _atom_site_label
 _atom_site_symmetry_multiplicity
 _atom_site_fract_x
 _atom_site_fract_y
 _atom_site_fract_z
 _atom_site_occupancy
  Sm  Sm0  1  0.58478299  0.08478299  0.16956598  1
  Sm  Sm1  1  0.00554211  0.37500000  0.25000000  1
  Sm  Sm2  1  0.66521701  0.66521701  0.33043402  1
  Sm  Sm3  1  0.97017613  0.07257233  0.42214432  1
  Sm  Sm4  1  0.45196819  0.34957200  0.42214432  1
  Sm  Sm5  1  0.24445789  0.87500000  0.25000000  1
  Sm  Sm6  1  0.65042800  0.02982387  0.57785568  1
  Sm  Sm7  1  0.62500000  0.75554211  0.75000000  1
  Sm  Sm8  1  0.33478299  0.33478299  0.66956598  1
  Sm  Sm9  1  0.12500000  0.99445789  0.75000000  1
  Sm  Sm10  1  0.92742767  0.54803181  0.57785568  1
  Sm  Sm11  1  0.91521701  0.41521701  0.83043402  1
  Sm  Sm12  1  0.32257233  0.72017613  0.92214432  1
  Sm  Sm13  1  0.27982387  0.40042800  0.07785568  1
  Sm  Sm14  1  0.79803181  0.67742767  0.07785568  1
  Sm  Sm15  1  0.59957200  0.20196819  0.92214432  1
  S  S16  1  0.49665735  0.74376585  0.13303589  1
  S  S17  1  0.28706057  0.17782904  0.21051255  1
  S  S18  1  0.63637853  0.38927004  0.13303589  1
  S  S19  1  0.75334265  0.36072996  0.36696411  1
  S  S20  1  0.61362147  0.00623415  0.36696411  1
  S  S21  1  0.32654802  0.57217096  0.28948745  1
  S  S22  1  0.92345198  0.03268351  0.21051255  1
  S  S23  1  0.15354598  0.40448606  0.46709753  1
  S  S24  1  0.96293943  0.71731649  0.28948745  1
  S  S25  1  0.93738853  0.84645402  0.53290247  1
  S  S26  1  0.31355156  0.06261147  0.46709753  1
  S  S27  1  0.42782904  0.03706057  0.71051255  1
  S  S28  1  0.28268351  0.67345198  0.71051255  1
  S  S29  1  0.59551394  0.68644844  0.53290247  1
  S  S30  1  0.99376585  0.24665735  0.63303589  1
  S  S31  1  0.82217096  0.07654802  0.78948745  1
  S  S32  1  0.63927004  0.38637853  0.63303589  1
  S  S33  1  0.61072996  0.50334265  0.86696411  1
  S  S34  1  0.96731649  0.71293943  0.78948745  1
  S  S35  1  0.09645402  0.68738853  0.03290247  1
  S  S36  1  0.93644844  0.34551394  0.03290247  1
  S  S37  1  0.25623415  0.36362147  0.86696411  1
  S  S38  1  0.65448606  0.90354598  0.96709753  1
  S  S39  1  0.31261147  0.06355156  0.96709753  1
