# generated using pymatgen
data_Cs2USnS5
_symmetry_space_group_name_H-M   'P 1'
_cell_length_a   4.22649702
_cell_length_b   9.76470669
_cell_length_c   15.71970498
_cell_angle_alpha   90.00000000
_cell_angle_beta   90.00000000
_cell_angle_gamma   102.49867275
_symmetry_Int_Tables_number   1
_chemical_formula_structural   Cs2USnS5
_chemical_formula_sum   'Cs4 U2 Sn2 S10'
_cell_volume   633.38518987
_cell_formula_units_Z   2
loop_
 _symmetry_equiv_pos_site_id
 _symmetry_equiv_pos_as_xyz
  1  'x, y, z'
loop_
 _atom_site_type_symbol
 _atom_site_label
 _atom_site_symmetry_multiplicity
 _atom_site_fract_x
 _atom_site_fract_y
 _atom_site_fract_z
 _atom_site_occupancy
  Cs  Cs0  1  0.85968391  0.71936783  0.80239511  1
  Cs  Cs1  1  0.08606596  0.17213192  0.65488008  1
  Cs  Cs2  1  0.14031609  0.28063217  0.30239511  1
  Cs  Cs3  1  0.91393404  0.82786808  0.15488008  1
  U  U4  1  0.78559930  0.57119861  0.52879759  1
  U  U5  1  0.21440070  0.42880139  0.02879759  1
  Sn  Sn6  1  0.54631216  0.09262431  0.94084561  1
  Sn  Sn7  1  0.45368784  0.90737569  0.44084561  1
  S  S8  1  0.33707309  0.67414618  0.98857729  1
  S  S9  1  0.68657064  0.37314128  0.92403648  1
  S  S10  1  0.50598491  0.01196981  0.79546953  1
  S  S11  1  0.27054673  0.54109346  0.62954259  1
  S  S12  1  0.91281046  0.82562092  0.55942570  1
  S  S13  1  0.66292691  0.32585382  0.48857729  1
  S  S14  1  0.31342936  0.62685872  0.42403648  1
  S  S15  1  0.49401509  0.98803019  0.29546953  1
  S  S16  1  0.72945327  0.45890654  0.12954259  1
  S  S17  1  0.08718954  0.17437908  0.05942570  1
