# generated using pymatgen
data_PrEuN2
_symmetry_space_group_name_H-M   'P 1'
_cell_length_a   3.65052868
_cell_length_b   3.65052868
_cell_length_c   6.30878962
_cell_angle_alpha   73.18269971
_cell_angle_beta   73.18269965
_cell_angle_gamma   59.99999997
_symmetry_Int_Tables_number   1
_chemical_formula_structural   PrEuN2
_chemical_formula_sum   'Pr1 Eu1 N2'
_cell_volume   68.62626226
_cell_formula_units_Z   1
loop_
 _symmetry_equiv_pos_site_id
 _symmetry_equiv_pos_as_xyz
  1  'x, y, z'
loop_
 _atom_site_type_symbol
 _atom_site_label
 _atom_site_symmetry_multiplicity
 _atom_site_fract_x
 _atom_site_fract_y
 _atom_site_fract_z
 _atom_site_occupancy
  Eu  Eu0  1  0.00000000  0.00000000  0.00000000  1
  Pr  Pr1  1  0.50000000  0.50000000  0.50000000  1
  N  N2  1  0.74929385  0.74929385  0.75211846  1
  N  N3  1  0.25070615  0.25070615  0.24788154  1
