# generated using pymatgen
data_Ga(AgPd4)2
_symmetry_space_group_name_H-M   'P 1'
_cell_length_a   4.65753948
_cell_length_b   7.05036829
_cell_length_c   7.05036788
_cell_angle_alpha   96.05446823
_cell_angle_beta   115.05207725
_cell_angle_gamma   115.05207481
_symmetry_Int_Tables_number   1
_chemical_formula_structural   Ga(AgPd4)2
_chemical_formula_sum   'Ga1 Ag2 Pd8'
_cell_volume   178.19865421
_cell_formula_units_Z   1
loop_
 _symmetry_equiv_pos_site_id
 _symmetry_equiv_pos_as_xyz
  1  'x, y, z'
loop_
 _atom_site_type_symbol
 _atom_site_label
 _atom_site_symmetry_multiplicity
 _atom_site_fract_x
 _atom_site_fract_y
 _atom_site_fract_z
 _atom_site_occupancy
  Pd  Pd0  1  0.80347098  0.44210483  0.00031216  1
  Pd  Pd1  1  0.80347098  0.00031216  0.44210483  1
  Pd  Pd2  1  0.05976527  0.41858792  0.41858792  1
  Pd  Pd3  1  0.07649218  0.17517335  0.90133383  1
  Pd  Pd4  1  0.07649218  0.90133383  0.17517335  1
  Pd  Pd5  1  0.82052306  0.73321398  0.73321398  1
  Pd  Pd6  1  0.32583252  0.87184117  0.60714479  1
  Pd  Pd7  1  0.32583252  0.60714479  0.87184117  1
  Ag  Ag8  1  0.55973888  0.55818822  0.27947976  1
  Ag  Ag9  1  0.55973888  0.27947976  0.55818822  1
  Ga  Ga10  1  0.58854253  0.04656300  0.04656300  1
