# generated using pymatgen
data_SrCrPO4
_symmetry_space_group_name_H-M   'P 1'
_cell_length_a   5.84379067
_cell_length_b   5.84379066
_cell_length_c   5.84379067
_cell_angle_alpha   60.00000000
_cell_angle_beta   60.00000004
_cell_angle_gamma   60.00000002
_symmetry_Int_Tables_number   1
_chemical_formula_structural   SrCrPO4
_chemical_formula_sum   'Sr1 Cr1 P1 O4'
_cell_volume   141.11362674
_cell_formula_units_Z   1
loop_
 _symmetry_equiv_pos_site_id
 _symmetry_equiv_pos_as_xyz
  1  'x, y, z'
loop_
 _atom_site_type_symbol
 _atom_site_label
 _atom_site_symmetry_multiplicity
 _atom_site_fract_x
 _atom_site_fract_y
 _atom_site_fract_z
 _atom_site_occupancy
  Sr  Sr0  1  0.75000000  0.75000000  0.75000000  1
  Cr  Cr1  1  0.50000000  0.50000000  0.50000000  1
  P  P2  1  0.25000000  0.25000000  0.25000000  1
  O  O3  1  0.35759345  0.35759245  0.92722166  1
  O  O4  1  0.35759345  0.35759245  0.35759245  1
  O  O5  1  0.35759345  0.92722166  0.35759245  1
  O  O6  1  0.92722266  0.35759245  0.35759245  1
