# generated using pymatgen
data_Nd2PdPtO6
_symmetry_space_group_name_H-M   'P 1'
_cell_length_a   5.56744885
_cell_length_b   5.56449867
_cell_length_c   5.56529141
_cell_angle_alpha   64.25448226
_cell_angle_beta   64.25533920
_cell_angle_gamma   64.24209111
_symmetry_Int_Tables_number   1
_chemical_formula_structural   Nd2PdPtO6
_chemical_formula_sum   'Nd2 Pd1 Pt1 O6'
_cell_volume   133.30367467
_cell_formula_units_Z   1
loop_
 _symmetry_equiv_pos_site_id
 _symmetry_equiv_pos_as_xyz
  1  'x, y, z'
loop_
 _atom_site_type_symbol
 _atom_site_label
 _atom_site_symmetry_multiplicity
 _atom_site_fract_x
 _atom_site_fract_y
 _atom_site_fract_z
 _atom_site_occupancy
  O  O0  1  0.36695914  0.71818743  0.15229526  1
  O  O1  1  0.71760517  0.15217925  0.36700102  1
  O  O2  1  0.15221579  0.36723830  0.71804778  1
  O  O3  1  0.63304086  0.28181257  0.84770474  1
  O  O4  1  0.84778421  0.63276170  0.28195222  1
  O  O5  1  0.28239483  0.84782075  0.63299898  1
  Nd  Nd6  1  0.73930039  0.73952860  0.73958297  1
  Nd  Nd7  1  0.26069961  0.26047140  0.26041703  1
  Pd  Pd8  1  0.00000000  0.00000000  0.00000000  1
  Pt  Pt9  1  0.50000000  0.50000000  0.50000000  1
