# generated using pymatgen
data_ScAlMo2
_symmetry_space_group_name_H-M   'P 1'
_cell_length_a   5.28362784
_cell_length_b   5.28362784
_cell_length_c   5.28362784
_cell_angle_alpha   142.98500290
_cell_angle_beta   128.33052792
_cell_angle_gamma   65.24902943
_symmetry_Int_Tables_number   1
_chemical_formula_structural   ScAlMo2
_chemical_formula_sum   'Sc1 Al1 Mo2'
_cell_volume   68.73747242
_cell_formula_units_Z   1
loop_
 _symmetry_equiv_pos_site_id
 _symmetry_equiv_pos_as_xyz
  1  'x, y, z'
loop_
 _atom_site_type_symbol
 _atom_site_label
 _atom_site_symmetry_multiplicity
 _atom_site_fract_x
 _atom_site_fract_y
 _atom_site_fract_z
 _atom_site_occupancy
  Sc  Sc0  1  0.48587607  0.48587607  0.00000000  1
  Mo  Mo1  1  0.02050971  0.02050971  0.00000000  1
  Mo  Mo2  1  0.23178265  0.73178265  0.50000000  1
  Al  Al3  1  0.76183157  0.26183157  0.50000000  1
