# generated using pymatgen
data_La12Fe5Ag3
_symmetry_space_group_name_H-M   'P 1'
_cell_length_a   14.65489451
_cell_length_b   14.65489451
_cell_length_c   14.65489451
_cell_angle_alpha   109.47122065
_cell_angle_beta   109.47122064
_cell_angle_gamma   109.47122064
_symmetry_Int_Tables_number   1
_chemical_formula_structural   La12Fe5Ag3
_chemical_formula_sum   'La48 Fe20 Ag12'
_cell_volume   2422.84816773
_cell_formula_units_Z   4
loop_
 _symmetry_equiv_pos_site_id
 _symmetry_equiv_pos_as_xyz
  1  'x, y, z'
loop_
 _atom_site_type_symbol
 _atom_site_label
 _atom_site_symmetry_multiplicity
 _atom_site_fract_x
 _atom_site_fract_y
 _atom_site_fract_z
 _atom_site_occupancy
  Ag  Ag0  1  0.75000000  0.37500000  0.12500000  1
  Ag  Ag1  1  0.87500000  0.75000000  0.12500000  1
  Ag  Ag2  1  0.37500000  0.75000000  0.62500000  1
  Ag  Ag3  1  0.25000000  0.12500000  0.37500000  1
  Ag  Ag4  1  0.87500000  0.12500000  0.25000000  1
  Ag  Ag5  1  0.37500000  0.62500000  0.25000000  1
  Ag  Ag6  1  0.62500000  0.37500000  0.75000000  1
  Ag  Ag7  1  0.12500000  0.87500000  0.75000000  1
  Ag  Ag8  1  0.75000000  0.87500000  0.62500000  1
  Ag  Ag9  1  0.62500000  0.25000000  0.37500000  1
  Ag  Ag10  1  0.12500000  0.25000000  0.87500000  1
  Ag  Ag11  1  0.25000000  0.62500000  0.87500000  1
  Fe  Fe12  1  0.12500000  0.37500000  0.25000000  1
  Fe  Fe13  1  -0.00000000  0.50000000  0.00000000  1
  Fe  Fe14  1  0.00000000  0.00000000  0.00000000  1
  Fe  Fe15  1  0.37500000  0.25000000  0.12500000  1
  Fe  Fe16  1  0.50000000  0.00000000  0.50000000  1
  Fe  Fe17  1  0.50000000  0.50000000  0.00000000  1
  Fe  Fe18  1  0.12500000  0.75000000  0.37500000  1
  Fe  Fe19  1  0.75000000  0.12500000  0.87500000  1
  Fe  Fe20  1  0.75000000  0.62500000  0.37500000  1
  Fe  Fe21  1  0.37500000  0.12500000  0.75000000  1
  Fe  Fe22  1  0.62500000  0.87500000  0.25000000  1
  Fe  Fe23  1  0.50000000  0.50000000  0.50000000  1
  Fe  Fe24  1  0.50000000  0.00000000  0.00000000  1
  Fe  Fe25  1  0.00000000  0.00000000  0.50000000  1
  Fe  Fe26  1  0.25000000  0.37500000  0.62500000  1
  Fe  Fe27  1  0.25000000  0.87500000  0.12500000  1
  Fe  Fe28  1  0.00000000  0.50000000  0.50000000  1
  Fe  Fe29  1  0.87500000  0.25000000  0.62500000  1
  Fe  Fe30  1  0.62500000  0.75000000  0.87500000  1
  Fe  Fe31  1  0.87500000  0.62500000  0.75000000  1
  La  La32  1  0.70275558  0.11673562  0.02070395  1
  La  La33  1  0.31794837  0.52070395  0.40396834  1
  La  La34  1  0.97929605  0.38326438  0.29724442  1
  La  La35  1  0.52070395  0.20275558  0.11673562  1
  La  La36  1  0.58601996  0.70275558  0.68205163  1
  La  La37  1  0.97929605  0.59603166  0.18205163  1
  La  La38  1  0.31794837  0.79724442  0.41398004  1
  La  La39  1  0.09603166  0.91398004  0.11673562  1
  La  La40  1  0.59603166  0.97929605  0.68205163  1
  La  La41  1  0.70275558  0.58601996  0.18205163  1
  La  La42  1  0.79724442  0.47929605  0.38326438  1
  La  La43  1  0.81794837  0.90396834  0.02070395  1
  La  La44  1  0.11673562  0.70275558  0.52070395  1
  La  La45  1  0.38326438  0.40396834  0.08601996  1
  La  La46  1  0.08601996  0.90396834  0.38326438  1
  La  La47  1  0.41398004  0.11673562  0.59603166  1
  La  La48  1  0.08601996  0.18205163  0.20275558  1
  La  La49  1  0.47929605  0.68205163  0.09603166  1
  La  La50  1  0.81794837  0.91398004  0.29724442  1
  La  La51  1  0.11673562  0.41398004  0.09603166  1
  La  La52  1  0.38326438  0.97929605  0.79724442  1
  La  La53  1  0.59603166  0.61673562  0.41398004  1
  La  La54  1  0.90396834  0.81794837  0.52070395  1
  La  La55  1  0.79724442  0.31794837  0.91398004  1
  La  La56  1  0.40396834  0.38326438  0.58601996  1
  La  La57  1  0.09603166  0.18205163  0.47929605  1
  La  La58  1  0.20275558  0.68205163  0.08601996  1
  La  La59  1  0.18205163  0.08601996  0.70275558  1
  La  La60  1  0.61673562  0.02070395  0.20275558  1
  La  La61  1  0.88326438  0.58601996  0.90396834  1
  La  La62  1  0.52070395  0.31794837  0.90396834  1
  La  La63  1  0.58601996  0.88326438  0.40396834  1
  La  La64  1  0.91398004  0.81794837  0.79724442  1
  La  La65  1  0.91398004  0.09603166  0.61673562  1
  La  La66  1  0.88326438  0.29724442  0.47929605  1
  La  La67  1  0.18205163  0.09603166  0.97929605  1
  La  La68  1  0.61673562  0.59603166  0.91398004  1
  La  La69  1  0.40396834  0.02070395  0.31794837  1
  La  La70  1  0.29724442  0.41398004  0.81794837  1
  La  La71  1  0.20275558  0.52070395  0.61673562  1
  La  La72  1  0.90396834  0.08601996  0.88326438  1
  La  La73  1  0.68205163  0.20275558  0.58601996  1
  La  La74  1  0.47929605  0.79724442  0.88326438  1
  La  La75  1  0.02070395  0.40396834  0.81794837  1
  La  La76  1  0.41398004  0.29724442  0.31794837  1
  La  La77  1  0.02070395  0.61673562  0.70275558  1
  La  La78  1  0.68205163  0.47929605  0.59603166  1
  La  La79  1  0.29724442  0.88326438  0.97929605  1
