# generated using pymatgen
data_LiZr2Ir
_symmetry_space_group_name_H-M   'P 1'
_cell_length_a   3.01071111
_cell_length_b   3.01071111
_cell_length_c   9.03300230
_cell_angle_alpha   90.00000000
_cell_angle_beta   90.00000000
_cell_angle_gamma   89.99321231
_symmetry_Int_Tables_number   1
_chemical_formula_structural   LiZr2Ir
_chemical_formula_sum   'Li1 Zr2 Ir1'
_cell_volume   81.87857734
_cell_formula_units_Z   1
loop_
 _symmetry_equiv_pos_site_id
 _symmetry_equiv_pos_as_xyz
  1  'x, y, z'
loop_
 _atom_site_type_symbol
 _atom_site_label
 _atom_site_symmetry_multiplicity
 _atom_site_fract_x
 _atom_site_fract_y
 _atom_site_fract_z
 _atom_site_occupancy
  Ir  Ir0  1  0.50000000  0.50000000  0.25000000  1
  Li  Li1  1  0.50000000  0.50000000  0.75000000  1
  Zr  Zr2  1  0.00000000  0.00000000  0.04202254  1
  Zr  Zr3  1  0.00000000  0.00000000  0.45797746  1
