# generated using pymatgen
data_K3Ni5I12
_symmetry_space_group_name_H-M   'P 1'
_cell_length_a   15.32689932
_cell_length_b   15.32689932
_cell_length_c   15.32689932
_cell_angle_alpha   109.47122064
_cell_angle_beta   109.47122064
_cell_angle_gamma   109.47122063
_symmetry_Int_Tables_number   1
_chemical_formula_structural   K3Ni5I12
_chemical_formula_sum   'K12 Ni20 I48'
_cell_volume   2771.66682127
_cell_formula_units_Z   4
loop_
 _symmetry_equiv_pos_site_id
 _symmetry_equiv_pos_as_xyz
  1  'x, y, z'
loop_
 _atom_site_type_symbol
 _atom_site_label
 _atom_site_symmetry_multiplicity
 _atom_site_fract_x
 _atom_site_fract_y
 _atom_site_fract_z
 _atom_site_occupancy
  K  K0  1  0.75000000  0.37500000  0.12500000  1
  K  K1  1  0.87500000  0.75000000  0.12500000  1
  K  K2  1  0.37500000  0.75000000  0.62500000  1
  K  K3  1  0.25000000  0.12500000  0.37500000  1
  K  K4  1  0.87500000  0.12500000  0.25000000  1
  K  K5  1  0.37500000  0.62500000  0.25000000  1
  K  K6  1  0.62500000  0.37500000  0.75000000  1
  K  K7  1  0.12500000  0.87500000  0.75000000  1
  K  K8  1  0.75000000  0.87500000  0.62500000  1
  K  K9  1  0.62500000  0.25000000  0.37500000  1
  K  K10  1  0.12500000  0.25000000  0.87500000  1
  K  K11  1  0.25000000  0.62500000  0.87500000  1
  Ni  Ni12  1  0.12500000  0.37500000  0.25000000  1
  Ni  Ni13  1  0.00000000  0.50000000  0.00000000  1
  Ni  Ni14  1  0.00000000  0.00000000  0.00000000  1
  Ni  Ni15  1  0.37500000  0.25000000  0.12500000  1
  Ni  Ni16  1  0.50000000  0.00000000  0.50000000  1
  Ni  Ni17  1  0.50000000  0.50000000  0.00000000  1
  Ni  Ni18  1  0.12500000  0.75000000  0.37500000  1
  Ni  Ni19  1  0.75000000  0.12500000  0.87500000  1
  Ni  Ni20  1  0.75000000  0.62500000  0.37500000  1
  Ni  Ni21  1  0.37500000  0.12500000  0.75000000  1
  Ni  Ni22  1  0.62500000  0.87500000  0.25000000  1
  Ni  Ni23  1  0.50000000  0.50000000  0.50000000  1
  Ni  Ni24  1  0.50000000  0.00000000  0.00000000  1
  Ni  Ni25  1  0.00000000  0.00000000  0.50000000  1
  Ni  Ni26  1  0.25000000  0.37500000  0.62500000  1
  Ni  Ni27  1  0.25000000  0.87500000  0.12500000  1
  Ni  Ni28  1  0.00000000  0.50000000  0.50000000  1
  Ni  Ni29  1  0.87500000  0.25000000  0.62500000  1
  Ni  Ni30  1  0.62500000  0.75000000  0.87500000  1
  Ni  Ni31  1  0.87500000  0.62500000  0.75000000  1
  I  I32  1  0.69074701  0.10934443  0.01028255  1
  I  I33  1  0.31953554  0.51028255  0.40093812  1
  I  I34  1  0.98971745  0.39065557  0.30925299  1
  I  I35  1  0.51028255  0.19074701  0.10934443  1
  I  I36  1  0.58140258  0.69074701  0.68046446  1
  I  I37  1  0.98971745  0.59906188  0.18046446  1
  I  I38  1  0.31953554  0.80925299  0.41859742  1
  I  I39  1  0.09906188  0.91859742  0.10934443  1
  I  I40  1  0.59906188  0.98971745  0.68046446  1
  I  I41  1  0.69074701  0.58140258  0.18046446  1
  I  I42  1  0.80925299  0.48971745  0.39065557  1
  I  I43  1  0.81953554  0.90093812  0.01028255  1
  I  I44  1  0.10934443  0.69074701  0.51028255  1
  I  I45  1  0.39065557  0.40093812  0.08140258  1
  I  I46  1  0.08140258  0.90093812  0.39065557  1
  I  I47  1  0.41859742  0.10934443  0.59906188  1
  I  I48  1  0.08140258  0.18046446  0.19074701  1
  I  I49  1  0.48971745  0.68046446  0.09906188  1
  I  I50  1  0.81953554  0.91859742  0.30925299  1
  I  I51  1  0.10934443  0.41859742  0.09906188  1
  I  I52  1  0.39065557  0.98971745  0.80925299  1
  I  I53  1  0.59906188  0.60934443  0.41859742  1
  I  I54  1  0.90093812  0.81953554  0.51028255  1
  I  I55  1  0.80925299  0.31953554  0.91859742  1
  I  I56  1  0.40093812  0.39065557  0.58140258  1
  I  I57  1  0.09906188  0.18046446  0.48971745  1
  I  I58  1  0.19074701  0.68046446  0.08140258  1
  I  I59  1  0.18046446  0.08140258  0.69074701  1
  I  I60  1  0.60934443  0.01028255  0.19074701  1
  I  I61  1  0.89065557  0.58140258  0.90093812  1
  I  I62  1  0.51028255  0.31953554  0.90093812  1
  I  I63  1  0.58140258  0.89065557  0.40093812  1
  I  I64  1  0.91859742  0.81953554  0.80925299  1
  I  I65  1  0.91859742  0.09906188  0.60934443  1
  I  I66  1  0.89065557  0.30925299  0.48971745  1
  I  I67  1  0.18046446  0.09906188  0.98971745  1
  I  I68  1  0.60934443  0.59906188  0.91859742  1
  I  I69  1  0.40093812  0.01028255  0.31953554  1
  I  I70  1  0.30925299  0.41859742  0.81953554  1
  I  I71  1  0.19074701  0.51028255  0.60934443  1
  I  I72  1  0.90093812  0.08140258  0.89065557  1
  I  I73  1  0.68046446  0.19074701  0.58140258  1
  I  I74  1  0.48971745  0.80925299  0.89065557  1
  I  I75  1  0.01028255  0.40093812  0.81953554  1
  I  I76  1  0.41859742  0.30925299  0.31953554  1
  I  I77  1  0.01028255  0.60934443  0.69074701  1
  I  I78  1  0.68046446  0.48971745  0.59906188  1
  I  I79  1  0.30925299  0.89065557  0.98971745  1
