# generated using pymatgen
data_CdCoB2
_symmetry_space_group_name_H-M   'P 1'
_cell_length_a   3.69935708
_cell_length_b   3.69935708
_cell_length_c   7.48442528
_cell_angle_alpha   75.69183994
_cell_angle_beta   75.69183994
_cell_angle_gamma   90.00000000
_symmetry_Int_Tables_number   1
_chemical_formula_structural   CdCoB2
_chemical_formula_sum   'Cd2 Co2 B4'
_cell_volume   95.96663723
_cell_formula_units_Z   2
loop_
 _symmetry_equiv_pos_site_id
 _symmetry_equiv_pos_as_xyz
  1  'x, y, z'
loop_
 _atom_site_type_symbol
 _atom_site_label
 _atom_site_symmetry_multiplicity
 _atom_site_fract_x
 _atom_site_fract_y
 _atom_site_fract_z
 _atom_site_occupancy
  B  B0  1  0.37504291  0.12500000  0.25000000  1
  B  B1  1  0.37495709  0.62500000  0.25000000  1
  B  B2  1  0.37500000  0.62495709  0.75000000  1
  B  B3  1  0.87500000  0.62504291  0.75000000  1
  Co  Co4  1  0.50000000  0.50000000  0.00000000  1
  Co  Co5  1  0.25000000  0.75000000  0.50000000  1
  Cd  Cd6  1  0.00000000  0.00000000  0.00000000  1
  Cd  Cd7  1  0.75000000  0.25000000  0.50000000  1
