# generated using pymatgen
data_Pm8ZnCo2
_symmetry_space_group_name_H-M   'P 1'
_cell_length_a   5.64037155
_cell_length_b   7.98370934
_cell_length_c   7.98370872
_cell_angle_alpha   116.21995067
_cell_angle_beta   98.39131994
_cell_angle_gamma   98.39132750
_symmetry_Int_Tables_number   1
_chemical_formula_structural   Pm8ZnCo2
_chemical_formula_sum   'Pm8 Zn1 Co2'
_cell_volume   309.97315516
_cell_formula_units_Z   1
loop_
 _symmetry_equiv_pos_site_id
 _symmetry_equiv_pos_as_xyz
  1  'x, y, z'
loop_
 _atom_site_type_symbol
 _atom_site_label
 _atom_site_symmetry_multiplicity
 _atom_site_fract_x
 _atom_site_fract_y
 _atom_site_fract_z
 _atom_site_occupancy
  Pm  Pm0  1  0.56419053  0.34097962  0.08615435  1
  Pm  Pm1  1  0.56419053  0.08615435  0.34097962  1
  Pm  Pm2  1  0.18825536  0.39031513  0.39031513  1
  Pm  Pm3  1  0.99995990  0.24195415  0.76402655  1
  Pm  Pm4  1  0.99995990  0.76402655  0.24195415  1
  Pm  Pm5  1  0.81133880  0.61565650  0.61565650  1
  Pm  Pm6  1  0.43563297  0.92004890  0.66518283  1
  Pm  Pm7  1  0.43563297  0.66518283  0.92004890  1
  Zn  Zn8  1  0.99984687  0.00289173  0.00289173  1
  Co  Co9  1  0.50033009  0.71495957  0.29176568  1
  Co  Co10  1  0.50033009  0.29176568  0.71495957  1
