# generated using pymatgen
data_YPuZnCo
_symmetry_space_group_name_H-M   'P 1'
_cell_length_a   4.89461579
_cell_length_b   4.89461578
_cell_length_c   4.89461579
_cell_angle_alpha   60.00000006
_cell_angle_beta   60.00000006
_cell_angle_gamma   60.00000002
_symmetry_Int_Tables_number   1
_chemical_formula_structural   YPuZnCo
_chemical_formula_sum   'Y1 Pu1 Zn1 Co1'
_cell_volume   82.91647342
_cell_formula_units_Z   1
loop_
 _symmetry_equiv_pos_site_id
 _symmetry_equiv_pos_as_xyz
  1  'x, y, z'
loop_
 _atom_site_type_symbol
 _atom_site_label
 _atom_site_symmetry_multiplicity
 _atom_site_fract_x
 _atom_site_fract_y
 _atom_site_fract_z
 _atom_site_occupancy
  Y  Y0  1  0.75000000  0.75000000  0.75000000  1
  Zn  Zn1  1  0.00000000  0.00000000  0.00000000  1
  Co  Co2  1  0.50000000  0.50000000  0.50000000  1
  Pu  Pu3  1  0.25000000  0.25000000  0.25000000  1
