# generated using pymatgen
data_TmScS
_symmetry_space_group_name_H-M   'P 1'
_cell_length_a   3.64518766
_cell_length_b   3.64518766
_cell_length_c   6.22247345
_cell_angle_alpha   72.96804320
_cell_angle_beta   72.96804320
_cell_angle_gamma   60.00000004
_symmetry_Int_Tables_number   1
_chemical_formula_structural   TmScS
_chemical_formula_sum   'Tm1 Sc1 S1'
_cell_volume   67.38363591
_cell_formula_units_Z   1
loop_
 _symmetry_equiv_pos_site_id
 _symmetry_equiv_pos_as_xyz
  1  'x, y, z'
loop_
 _atom_site_type_symbol
 _atom_site_label
 _atom_site_symmetry_multiplicity
 _atom_site_fract_x
 _atom_site_fract_y
 _atom_site_fract_z
 _atom_site_occupancy
  S  S0  1  0.36225789  0.36225789  0.91322633  1
  Sc  Sc1  1  0.10982334  0.10982334  0.67052897  1
  Tm  Tm2  1  0.60143477  0.60143477  0.19569469  1
