# generated using pymatgen
data_Tb3Mg7Al2
_symmetry_space_group_name_H-M   'P 1'
_cell_length_a   5.94371243
_cell_length_b   5.94371242
_cell_length_c   10.11445690
_cell_angle_alpha   72.91305018
_cell_angle_beta   72.91305016
_cell_angle_gamma   60.00000001
_symmetry_Int_Tables_number   1
_chemical_formula_structural   Tb3Mg7Al2
_chemical_formula_sum   'Tb3 Mg7 Al2'
_cell_volume   291.09428082
_cell_formula_units_Z   1
loop_
 _symmetry_equiv_pos_site_id
 _symmetry_equiv_pos_as_xyz
  1  'x, y, z'
loop_
 _atom_site_type_symbol
 _atom_site_label
 _atom_site_symmetry_multiplicity
 _atom_site_fract_x
 _atom_site_fract_y
 _atom_site_fract_z
 _atom_site_occupancy
  Tb  Tb0  1  0.00000000  0.00000000  0.00000000  1
  Tb  Tb1  1  0.85514630  0.85514630  0.43456010  1
  Tb  Tb2  1  0.14485370  0.14485370  0.56543990  1
  Mg  Mg3  1  0.50000000  0.50000000  0.50000000  1
  Mg  Mg4  1  0.92415128  0.41721930  0.24141013  1
  Mg  Mg5  1  0.41721930  0.92415128  0.24141013  1
  Mg  Mg6  1  0.41721930  0.41721930  0.24141013  1
  Mg  Mg7  1  0.07584872  0.58278070  0.75858987  1
  Mg  Mg8  1  0.58278070  0.58278070  0.75858987  1
  Mg  Mg9  1  0.58278070  0.07584872  0.75858987  1
  Al  Al10  1  0.66575289  0.66575289  0.00274032  1
  Al  Al11  1  0.33424711  0.33424711  0.99725968  1
