# generated using pymatgen
data_Tb2SmTl2
_symmetry_space_group_name_H-M   'P 1'
_cell_length_a   3.79470694
_cell_length_b   5.43756254
_cell_length_c   14.25592795
_cell_angle_alpha   90.00000000
_cell_angle_beta   97.67501968
_cell_angle_gamma   90.00000000
_symmetry_Int_Tables_number   1
_chemical_formula_structural   Tb2SmTl2
_chemical_formula_sum   'Tb4 Sm2 Tl4'
_cell_volume   291.52100270
_cell_formula_units_Z   2
loop_
 _symmetry_equiv_pos_site_id
 _symmetry_equiv_pos_as_xyz
  1  'x, y, z'
loop_
 _atom_site_type_symbol
 _atom_site_label
 _atom_site_symmetry_multiplicity
 _atom_site_fract_x
 _atom_site_fract_y
 _atom_site_fract_z
 _atom_site_occupancy
  Tb  Tb0  1  0.04951265  0.75000000  0.09905005  1
  Tb  Tb1  1  0.95048735  0.25000000  0.90094995  1
  Tb  Tb2  1  0.23699983  0.75000000  0.47408802  1
  Tb  Tb3  1  0.76300017  0.25000000  0.52591198  1
  Sm  Sm4  1  0.85265715  0.75000000  0.70253401  1
  Sm  Sm5  1  0.14734285  0.25000000  0.29746599  1
  Tl  Tl6  1  0.64347918  0.75000000  0.28872849  1
  Tl  Tl7  1  0.35652082  0.25000000  0.71127151  1
  Tl  Tl8  1  0.45175706  0.75000000  0.90451496  1
  Tl  Tl9  1  0.54824294  0.25000000  0.09548504  1
