# generated using pymatgen
data_Mn2AlAg
_symmetry_space_group_name_H-M   'P 1'
_cell_length_a   4.71228315
_cell_length_b   4.71228315
_cell_length_c   2.83835386
_cell_angle_alpha   90.02071950
_cell_angle_beta   90.02071956
_cell_angle_gamma   108.73190514
_symmetry_Int_Tables_number   1
_chemical_formula_structural   Mn2AlAg
_chemical_formula_sum   'Mn2 Al1 Ag1'
_cell_volume   59.68891453
_cell_formula_units_Z   1
loop_
 _symmetry_equiv_pos_site_id
 _symmetry_equiv_pos_as_xyz
  1  'x, y, z'
loop_
 _atom_site_type_symbol
 _atom_site_label
 _atom_site_symmetry_multiplicity
 _atom_site_fract_x
 _atom_site_fract_y
 _atom_site_fract_z
 _atom_site_occupancy
  Mn  Mn0  1  0.00000000  0.00000000  0.00000000  1
  Mn  Mn1  1  0.50000000  0.50000000  -0.00000000  1
  Al  Al2  1  0.00000000  0.50000000  0.50000000  1
  Ag  Ag3  1  0.50000000  0.00000000  0.50000000  1
