# generated using pymatgen
data_CdHgSbBr
_symmetry_space_group_name_H-M   'P 1'
_cell_length_a   4.79106900
_cell_length_b   4.79106900
_cell_length_c   8.03553799
_cell_angle_alpha   90.18297509
_cell_angle_beta   107.17278312
_cell_angle_gamma   119.96336181
_symmetry_Int_Tables_number   1
_chemical_formula_structural   CdHgSbBr
_chemical_formula_sum   'Cd1 Hg1 Sb1 Br1'
_cell_volume   150.12348855
_cell_formula_units_Z   1
loop_
 _symmetry_equiv_pos_site_id
 _symmetry_equiv_pos_as_xyz
  1  'x, y, z'
loop_
 _atom_site_type_symbol
 _atom_site_label
 _atom_site_symmetry_multiplicity
 _atom_site_fract_x
 _atom_site_fract_y
 _atom_site_fract_z
 _atom_site_occupancy
  Cd  Cd0  1  0.23283017  0.99861537  0.23144554  1
  Hg  Hg1  1  0.15350419  0.46276653  0.61627072  1
  Sb  Sb2  1  0.47541894  0.12341243  0.59883137  1
  Br  Br3  1  0.46727669  0.61597568  0.08325237  1
