# generated using pymatgen
data_KFe2Rh
_symmetry_space_group_name_H-M   'P 1'
_cell_length_a   2.97227186
_cell_length_b   2.97405421
_cell_length_c   8.79469912
_cell_angle_alpha   70.26221400
_cell_angle_beta   90.00000000
_cell_angle_gamma   90.00000000
_symmetry_Int_Tables_number   1
_chemical_formula_structural   KFe2Rh
_chemical_formula_sum   'K1 Fe2 Rh1'
_cell_volume   73.17495698
_cell_formula_units_Z   1
loop_
 _symmetry_equiv_pos_site_id
 _symmetry_equiv_pos_as_xyz
  1  'x, y, z'
loop_
 _atom_site_type_symbol
 _atom_site_label
 _atom_site_symmetry_multiplicity
 _atom_site_fract_x
 _atom_site_fract_y
 _atom_site_fract_z
 _atom_site_occupancy
  Fe  Fe0  1  0.00000000  0.99812855  0.00189483  1
  Fe  Fe1  1  0.50000000  0.33997483  0.16049829  1
  K  K2  1  0.00000000  0.48757021  0.51210645  1
  Rh  Rh3  1  0.50000000  0.67432641  0.82550044  1
