# generated using pymatgen
data_Tm12Rh3O5
_symmetry_space_group_name_H-M   'P 1'
_cell_length_a   12.90320657
_cell_length_b   12.90320657
_cell_length_c   12.90320657
_cell_angle_alpha   109.47122062
_cell_angle_beta   109.47122064
_cell_angle_gamma   109.47122065
_symmetry_Int_Tables_number   1
_chemical_formula_structural   Tm12Rh3O5
_chemical_formula_sum   'Tm48 Rh12 O20'
_cell_volume   1653.75457818
_cell_formula_units_Z   4
loop_
 _symmetry_equiv_pos_site_id
 _symmetry_equiv_pos_as_xyz
  1  'x, y, z'
loop_
 _atom_site_type_symbol
 _atom_site_label
 _atom_site_symmetry_multiplicity
 _atom_site_fract_x
 _atom_site_fract_y
 _atom_site_fract_z
 _atom_site_occupancy
  Tm  Tm0  1  0.70735892  0.11847072  0.02269267  1
  Tm  Tm1  1  0.31533375  0.52269267  0.40422196  1
  Tm  Tm2  1  0.97730733  0.38152928  0.29264108  1
  Tm  Tm3  1  0.52269267  0.20735892  0.11847072  1
  Tm  Tm4  1  0.58888821  0.70735892  0.68466625  1
  Tm  Tm5  1  0.97730733  0.59577804  0.18466625  1
  Tm  Tm6  1  0.31533375  0.79264108  0.41111179  1
  Tm  Tm7  1  0.09577804  0.91111179  0.11847072  1
  Tm  Tm8  1  0.59577804  0.97730733  0.68466625  1
  Tm  Tm9  1  0.70735892  0.58888821  0.18466625  1
  Tm  Tm10  1  0.79264108  0.47730733  0.38152928  1
  Tm  Tm11  1  0.81533375  0.90422196  0.02269267  1
  Tm  Tm12  1  0.11847072  0.70735892  0.52269267  1
  Tm  Tm13  1  0.38152928  0.40422196  0.08888821  1
  Tm  Tm14  1  0.08888821  0.90422196  0.38152928  1
  Tm  Tm15  1  0.41111179  0.11847072  0.59577804  1
  Tm  Tm16  1  0.08888821  0.18466625  0.20735892  1
  Tm  Tm17  1  0.47730733  0.68466625  0.09577804  1
  Tm  Tm18  1  0.81533375  0.91111179  0.29264108  1
  Tm  Tm19  1  0.11847072  0.41111179  0.09577804  1
  Tm  Tm20  1  0.38152928  0.97730733  0.79264108  1
  Tm  Tm21  1  0.59577804  0.61847072  0.41111179  1
  Tm  Tm22  1  0.90422196  0.81533375  0.52269267  1
  Tm  Tm23  1  0.79264108  0.31533375  0.91111179  1
  Tm  Tm24  1  0.40422196  0.38152928  0.58888821  1
  Tm  Tm25  1  0.09577804  0.18466625  0.47730733  1
  Tm  Tm26  1  0.20735892  0.68466625  0.08888821  1
  Tm  Tm27  1  0.18466625  0.08888821  0.70735892  1
  Tm  Tm28  1  0.61847072  0.02269267  0.20735892  1
  Tm  Tm29  1  0.88152928  0.58888821  0.90422196  1
  Tm  Tm30  1  0.52269267  0.31533375  0.90422196  1
  Tm  Tm31  1  0.58888821  0.88152928  0.40422196  1
  Tm  Tm32  1  0.91111179  0.81533375  0.79264108  1
  Tm  Tm33  1  0.91111179  0.09577804  0.61847072  1
  Tm  Tm34  1  0.88152928  0.29264108  0.47730733  1
  Tm  Tm35  1  0.18466625  0.09577804  0.97730733  1
  Tm  Tm36  1  0.61847072  0.59577804  0.91111179  1
  Tm  Tm37  1  0.40422196  0.02269267  0.31533375  1
  Tm  Tm38  1  0.29264108  0.41111179  0.81533375  1
  Tm  Tm39  1  0.20735892  0.52269267  0.61847072  1
  Tm  Tm40  1  0.90422196  0.08888821  0.88152928  1
  Tm  Tm41  1  0.68466625  0.20735892  0.58888821  1
  Tm  Tm42  1  0.47730733  0.79264108  0.88152928  1
  Tm  Tm43  1  0.02269267  0.40422196  0.81533375  1
  Tm  Tm44  1  0.41111179  0.29264108  0.31533375  1
  Tm  Tm45  1  0.02269267  0.61847072  0.70735892  1
  Tm  Tm46  1  0.68466625  0.47730733  0.59577804  1
  Tm  Tm47  1  0.29264108  0.88152928  0.97730733  1
  Rh  Rh48  1  0.75000000  0.37500000  0.12500000  1
  Rh  Rh49  1  0.87500000  0.75000000  0.12500000  1
  Rh  Rh50  1  0.37500000  0.75000000  0.62500000  1
  Rh  Rh51  1  0.25000000  0.12500000  0.37500000  1
  Rh  Rh52  1  0.87500000  0.12500000  0.25000000  1
  Rh  Rh53  1  0.37500000  0.62500000  0.25000000  1
  Rh  Rh54  1  0.62500000  0.37500000  0.75000000  1
  Rh  Rh55  1  0.12500000  0.87500000  0.75000000  1
  Rh  Rh56  1  0.75000000  0.87500000  0.62500000  1
  Rh  Rh57  1  0.62500000  0.25000000  0.37500000  1
  Rh  Rh58  1  0.12500000  0.25000000  0.87500000  1
  Rh  Rh59  1  0.25000000  0.62500000  0.87500000  1
  O  O60  1  0.12500000  0.37500000  0.25000000  1
  O  O61  1  0.00000000  0.50000000  0.00000000  1
  O  O62  1  0.00000000  0.00000000  0.00000000  1
  O  O63  1  0.37500000  0.25000000  0.12500000  1
  O  O64  1  0.50000000  0.00000000  0.50000000  1
  O  O65  1  0.50000000  0.50000000  0.00000000  1
  O  O66  1  0.12500000  0.75000000  0.37500000  1
  O  O67  1  0.75000000  0.12500000  0.87500000  1
  O  O68  1  0.75000000  0.62500000  0.37500000  1
  O  O69  1  0.37500000  0.12500000  0.75000000  1
  O  O70  1  0.62500000  0.87500000  0.25000000  1
  O  O71  1  0.50000000  0.50000000  0.50000000  1
  O  O72  1  0.50000000  0.00000000  0.00000000  1
  O  O73  1  0.00000000  0.00000000  0.50000000  1
  O  O74  1  0.25000000  0.37500000  0.62500000  1
  O  O75  1  0.25000000  0.87500000  0.12500000  1
  O  O76  1  0.00000000  0.50000000  0.50000000  1
  O  O77  1  0.87500000  0.25000000  0.62500000  1
  O  O78  1  0.62500000  0.75000000  0.87500000  1
  O  O79  1  0.87500000  0.62500000  0.75000000  1
