# generated using pymatgen
data_CrCd2SnO4
_symmetry_space_group_name_H-M   'P 1'
_cell_length_a   5.53073580
_cell_length_b   5.53073581
_cell_length_c   5.33432779
_cell_angle_alpha   116.40219335
_cell_angle_beta   116.40219340
_cell_angle_gamma   98.17768020
_symmetry_Int_Tables_number   1
_chemical_formula_structural   CrCd2SnO4
_chemical_formula_sum   'Cr1 Cd2 Sn1 O4'
_cell_volume   118.57259883
_cell_formula_units_Z   1
loop_
 _symmetry_equiv_pos_site_id
 _symmetry_equiv_pos_as_xyz
  1  'x, y, z'
loop_
 _atom_site_type_symbol
 _atom_site_label
 _atom_site_symmetry_multiplicity
 _atom_site_fract_x
 _atom_site_fract_y
 _atom_site_fract_z
 _atom_site_occupancy
  Cr  Cr0  1  0.97904896  0.97904896  0.95809792  1
  Cd  Cd1  1  0.76378741  0.26378741  0.52757582  1
  Cd  Cd2  1  0.26378741  0.76378741  0.52757582  1
  Sn  Sn3  1  0.56067096  0.56067096  0.12134292  1
  O  O4  1  0.61689766  0.61689766  0.78695097  1
  O  O5  1  0.30280710  0.84323720  0.14604330  1
  O  O6  1  0.84323720  0.30280710  0.14604330  1
  O  O7  1  0.17005330  0.17005330  0.78695097  1
