# generated using pymatgen
data_Ce3AlIn2
_symmetry_space_group_name_H-M   'P 1'
_cell_length_a   3.26323159
_cell_length_b   3.26323159
_cell_length_c   14.25708460
_cell_angle_alpha   90.00000000
_cell_angle_beta   90.00000000
_cell_angle_gamma   90.00000000
_symmetry_Int_Tables_number   1
_chemical_formula_structural   Ce3AlIn2
_chemical_formula_sum   'Ce3 Al1 In2'
_cell_volume   151.81913748
_cell_formula_units_Z   1
loop_
 _symmetry_equiv_pos_site_id
 _symmetry_equiv_pos_as_xyz
  1  'x, y, z'
loop_
 _atom_site_type_symbol
 _atom_site_label
 _atom_site_symmetry_multiplicity
 _atom_site_fract_x
 _atom_site_fract_y
 _atom_site_fract_z
 _atom_site_occupancy
  Ce  Ce0  1  0.00000000  0.00000000  0.00000000  1
  Ce  Ce1  1  0.00000000  0.00000000  0.65230552  1
  Ce  Ce2  1  0.00000000  0.00000000  0.34769448  1
  Al  Al3  1  0.50000000  0.50000000  0.50000000  1
  In  In4  1  0.50000000  0.50000000  0.82718424  1
  In  In5  1  0.50000000  0.50000000  0.17281576  1
