# generated using pymatgen
data_Nd4HoIn5
_symmetry_space_group_name_H-M   'P 1'
_cell_length_a   3.83484794
_cell_length_b   3.83484794
_cell_length_c   19.40397747
_cell_angle_alpha   90.00000000
_cell_angle_beta   90.00000000
_cell_angle_gamma   90.00000000
_symmetry_Int_Tables_number   1
_chemical_formula_structural   Nd4HoIn5
_chemical_formula_sum   'Nd4 Ho1 In5'
_cell_volume   285.35603213
_cell_formula_units_Z   1
loop_
 _symmetry_equiv_pos_site_id
 _symmetry_equiv_pos_as_xyz
  1  'x, y, z'
loop_
 _atom_site_type_symbol
 _atom_site_label
 _atom_site_symmetry_multiplicity
 _atom_site_fract_x
 _atom_site_fract_y
 _atom_site_fract_z
 _atom_site_occupancy
  Nd  Nd0  1  0.00000000  0.00000000  0.19428205  1
  Nd  Nd1  1  0.00000000  0.00000000  0.39819759  1
  Nd  Nd2  1  0.00000000  0.00000000  0.60180241  1
  Nd  Nd3  1  0.00000000  0.00000000  0.80571795  1
  Ho  Ho4  1  0.00000000  0.00000000  0.00000000  1
  In  In5  1  0.50000000  0.50000000  0.09158002  1
  In  In6  1  0.50000000  0.50000000  0.29616955  1
  In  In7  1  0.50000000  0.50000000  0.50000000  1
  In  In8  1  0.50000000  0.50000000  0.70383045  1
  In  In9  1  0.50000000  0.50000000  0.90841998  1
