# generated using pymatgen
data_Sr3InO
_symmetry_space_group_name_H-M   'P 1'
_cell_length_a   7.21489841
_cell_length_b   7.21489841
_cell_length_c   8.26904350
_cell_angle_alpha   64.13453185
_cell_angle_beta   64.13453185
_cell_angle_gamma   90.00000000
_symmetry_Int_Tables_number   1
_chemical_formula_structural   Sr3InO
_chemical_formula_sum   'Sr6 In2 O2'
_cell_volume   338.75492221
_cell_formula_units_Z   2
loop_
 _symmetry_equiv_pos_site_id
 _symmetry_equiv_pos_as_xyz
  1  'x, y, z'
loop_
 _atom_site_type_symbol
 _atom_site_label
 _atom_site_symmetry_multiplicity
 _atom_site_fract_x
 _atom_site_fract_y
 _atom_site_fract_z
 _atom_site_occupancy
  Sr  Sr0  1  0.63363110  0.89160171  0.21679659  1
  Sr  Sr1  1  0.10839829  0.36636890  0.78320341  1
  Sr  Sr2  1  0.10839829  0.85042769  0.78320341  1
  Sr  Sr3  1  0.14957231  0.89160171  0.21679659  1
  Sr  Sr4  1  0.36206620  0.36206620  0.27586760  1
  Sr  Sr5  1  0.63793380  0.63793380  0.72413240  1
  O  O6  1  0.00000000  0.00000000  0.00000000  1
  O  O7  1  0.25000000  0.75000000  0.50000000  1
  In  In8  1  0.63316533  0.13316533  0.73366935  1
  In  In9  1  0.86683467  0.36683467  0.26633065  1
