# generated using pymatgen
data_La(PaSe3)2
_symmetry_space_group_name_H-M   'P 1'
_cell_length_a   7.44302891
_cell_length_b   9.09287503
_cell_length_c   9.09287559
_cell_angle_alpha   77.55838255
_cell_angle_beta   70.58609518
_cell_angle_gamma   70.58609584
_symmetry_Int_Tables_number   1
_chemical_formula_structural   La(PaSe3)2
_chemical_formula_sum   'La2 Pa4 Se12'
_cell_volume   543.57771776
_cell_formula_units_Z   2
loop_
 _symmetry_equiv_pos_site_id
 _symmetry_equiv_pos_as_xyz
  1  'x, y, z'
loop_
 _atom_site_type_symbol
 _atom_site_label
 _atom_site_symmetry_multiplicity
 _atom_site_fract_x
 _atom_site_fract_y
 _atom_site_fract_z
 _atom_site_occupancy
  La  La0  1  0.25000000  0.33023804  0.66976196  1
  La  La1  1  0.75000000  0.66976196  0.33023804  1
  Pa  Pa2  1  0.91477823  0.84321478  0.68787443  1
  Pa  Pa3  1  0.58522177  0.31212557  0.15678522  1
  Pa  Pa4  1  0.08522177  0.15678522  0.31212557  1
  Pa  Pa5  1  0.41477823  0.68787443  0.84321478  1
  Se  Se6  1  0.32441266  0.66923125  0.57255299  1
  Se  Se7  1  0.17558734  0.42744701  0.33076875  1
  Se  Se8  1  0.67558734  0.33076875  0.42744701  1
  Se  Se9  1  0.82441266  0.57255299  0.66923125  1
  Se  Se10  1  0.96226440  0.89077687  0.36201632  1
  Se  Se11  1  0.53773560  0.63798368  0.10922313  1
  Se  Se12  1  0.03773560  0.10922313  0.63798368  1
  Se  Se13  1  0.46226440  0.36201632  0.89077687  1
  Se  Se14  1  0.00429591  0.75542702  0.97891530  1
  Se  Se15  1  0.49570409  0.02108470  0.24457298  1
  Se  Se16  1  0.99570409  0.24457298  0.02108470  1
  Se  Se17  1  0.50429591  0.97891530  0.75542702  1
