# generated using pymatgen
data_Na2TiBiO4
_symmetry_space_group_name_H-M   'P 1'
_cell_length_a   5.88292304
_cell_length_b   6.17630214
_cell_length_c   7.53171772
_cell_angle_alpha   90.00000000
_cell_angle_beta   90.00000000
_cell_angle_gamma   90.00000000
_symmetry_Int_Tables_number   1
_chemical_formula_structural   Na2TiBiO4
_chemical_formula_sum   'Na4 Ti2 Bi2 O8'
_cell_volume   273.66278037
_cell_formula_units_Z   2
loop_
 _symmetry_equiv_pos_site_id
 _symmetry_equiv_pos_as_xyz
  1  'x, y, z'
loop_
 _atom_site_type_symbol
 _atom_site_label
 _atom_site_symmetry_multiplicity
 _atom_site_fract_x
 _atom_site_fract_y
 _atom_site_fract_z
 _atom_site_occupancy
  Na  Na0  1  0.49457926  0.32856907  0.25466093  1
  Na  Na1  1  0.49457926  0.32856907  0.74533907  1
  Na  Na2  1  0.99457926  0.67143093  0.75466093  1
  Na  Na3  1  0.99457926  0.67143093  0.24533907  1
  Ti  Ti4  1  0.50752076  0.83544680  0.50000000  1
  Ti  Ti5  1  0.00752076  0.16455320  0.00000000  1
  Bi  Bi6  1  0.94576610  0.17395951  0.50000000  1
  Bi  Bi7  1  0.44576610  0.82604049  0.00000000  1
  O  O8  1  0.33020327  0.16835970  0.00000000  1
  O  O9  1  0.83020327  0.83164030  0.50000000  1
  O  O10  1  0.41203124  0.11503664  0.50000000  1
  O  O11  1  0.91203124  0.88496336  0.00000000  1
  O  O12  1  0.40763205  0.69724083  0.70251994  1
  O  O13  1  0.90763205  0.30275917  0.20251994  1
  O  O14  1  0.90763205  0.30275917  0.79748006  1
  O  O15  1  0.40763205  0.69724083  0.29748006  1
