# generated using pymatgen
data_Sc2TlRu
_symmetry_space_group_name_H-M   'P 1'
_cell_length_a   7.71234133
_cell_length_b   7.71234133
_cell_length_c   6.17774023
_cell_angle_alpha   51.37620696
_cell_angle_beta   51.37620696
_cell_angle_gamma   90.00000000
_symmetry_Int_Tables_number   1
_chemical_formula_structural   Sc2TlRu
_chemical_formula_sum   'Sc4 Tl2 Ru2'
_cell_volume   172.63990823
_cell_formula_units_Z   2
loop_
 _symmetry_equiv_pos_site_id
 _symmetry_equiv_pos_as_xyz
  1  'x, y, z'
loop_
 _atom_site_type_symbol
 _atom_site_label
 _atom_site_symmetry_multiplicity
 _atom_site_fract_x
 _atom_site_fract_y
 _atom_site_fract_z
 _atom_site_occupancy
  Sc  Sc0  1  0.56494297  0.12500000  0.25000000  1
  Sc  Sc1  1  0.18505703  0.62500000  0.25000000  1
  Sc  Sc2  1  0.37500000  0.43505703  0.75000000  1
  Sc  Sc3  1  0.87500000  0.81494297  0.75000000  1
  Ru  Ru4  1  0.50000000  0.50000000  0.00000000  1
  Ru  Ru5  1  0.25000000  0.75000000  0.50000000  1
  Tl  Tl6  1  0.00000000  0.00000000  0.00000000  1
  Tl  Tl7  1  0.75000000  0.25000000  0.50000000  1
