# generated using pymatgen
data_CsHgCl2
_symmetry_space_group_name_H-M   'P 1'
_cell_length_a   9.25926560
_cell_length_b   9.25926559
_cell_length_c   9.25926559
_cell_angle_alpha   30.82336960
_cell_angle_beta   30.82336967
_cell_angle_gamma   30.82336967
_symmetry_Int_Tables_number   1
_chemical_formula_structural   CsHgCl2
_chemical_formula_sum   'Cs1 Hg1 Cl2'
_cell_volume   184.84172655
_cell_formula_units_Z   1
loop_
 _symmetry_equiv_pos_site_id
 _symmetry_equiv_pos_as_xyz
  1  'x, y, z'
loop_
 _atom_site_type_symbol
 _atom_site_label
 _atom_site_symmetry_multiplicity
 _atom_site_fract_x
 _atom_site_fract_y
 _atom_site_fract_z
 _atom_site_occupancy
  Cs  Cs0  1  0.00000000  0.00000000  0.00000000  1
  Hg  Hg1  1  0.50000000  0.50000000  0.50000000  1
  Cl  Cl2  1  0.88150700  0.88150700  0.88150700  1
  Cl  Cl3  1  0.11849300  0.11849300  0.11849300  1
