# generated using pymatgen
data_Sr3Sc(PdO3)2
_symmetry_space_group_name_H-M   'P 1'
_cell_length_a   5.79048331
_cell_length_b   5.79048331
_cell_length_c   6.47293707
_cell_angle_alpha   90.00000000
_cell_angle_beta   90.00000000
_cell_angle_gamma   119.99999994
_symmetry_Int_Tables_number   1
_chemical_formula_structural   Sr3Sc(PdO3)2
_chemical_formula_sum   'Sr3 Sc1 Pd2 O6'
_cell_volume   187.95835920
_cell_formula_units_Z   1
loop_
 _symmetry_equiv_pos_site_id
 _symmetry_equiv_pos_as_xyz
  1  'x, y, z'
loop_
 _atom_site_type_symbol
 _atom_site_label
 _atom_site_symmetry_multiplicity
 _atom_site_fract_x
 _atom_site_fract_y
 _atom_site_fract_z
 _atom_site_occupancy
  Sr  Sr0  1  0.33333333  0.66666667  0.62151973  1
  Sr  Sr1  1  0.66666667  0.33333333  0.37848027  1
  Sr  Sr2  1  0.00000000  0.00000000  0.00000000  1
  Sc  Sc3  1  0.00000000  0.00000000  0.50000000  1
  Pd  Pd4  1  0.66666667  0.33333333  0.88004632  1
  Pd  Pd5  1  0.33333333  0.66666667  0.11995368  1
  O  O6  1  0.67044139  0.83522019  0.30783455  1
  O  O7  1  0.16477881  0.32955761  0.30783455  1
  O  O8  1  0.16477881  0.83522019  0.30783455  1
  O  O9  1  0.83522119  0.67044239  0.69216545  1
  O  O10  1  0.32955861  0.16477981  0.69216545  1
  O  O11  1  0.83522119  0.16477981  0.69216545  1
