# generated using pymatgen
data_PrIn4Pd15
_symmetry_space_group_name_H-M   'P 1'
_cell_length_a   4.10489199
_cell_length_b   4.10489099
_cell_length_c   20.11178677
_cell_angle_alpha   90.00000000
_cell_angle_beta   90.00000000
_cell_angle_gamma   90.00000000
_symmetry_Int_Tables_number   1
_chemical_formula_structural   PrIn4Pd15
_chemical_formula_sum   'Pr1 In4 Pd15'
_cell_volume   338.88630496
_cell_formula_units_Z   1
loop_
 _symmetry_equiv_pos_site_id
 _symmetry_equiv_pos_as_xyz
  1  'x, y, z'
loop_
 _atom_site_type_symbol
 _atom_site_label
 _atom_site_symmetry_multiplicity
 _atom_site_fract_x
 _atom_site_fract_y
 _atom_site_fract_z
 _atom_site_occupancy
  Pr  Pr0  1  0.00000000  0.00000000  0.00000000  1
  In  In1  1  0.00000000  0.00000000  0.20716810  1
  In  In2  1  0.00000000  0.00000000  0.40196406  1
  In  In3  1  0.00000000  0.00000000  0.59803594  1
  In  In4  1  0.00000000  0.00000000  0.79283190  1
  Pd  Pd5  1  0.50000000  0.50000000  0.00000000  1
  Pd  Pd6  1  0.50000000  0.50000000  0.20543479  1
  Pd  Pd7  1  0.50000000  0.50000000  0.40227248  1
  Pd  Pd8  1  0.50000000  0.50000000  0.59772752  1
  Pd  Pd9  1  0.50000000  0.50000000  0.79456521  1
  Pd  Pd10  1  0.50000000  0.00000000  0.10850908  1
  Pd  Pd11  1  0.50000000  0.00000000  0.30430200  1
  Pd  Pd12  1  0.50000000  0.00000000  0.50000000  1
  Pd  Pd13  1  0.50000000  0.00000000  0.69569800  1
  Pd  Pd14  1  0.50000000  0.00000000  0.89149092  1
  Pd  Pd15  1  0.00000000  0.50000000  0.10850908  1
  Pd  Pd16  1  0.00000000  0.50000000  0.30430200  1
  Pd  Pd17  1  0.00000000  0.50000000  0.50000000  1
  Pd  Pd18  1  0.00000000  0.50000000  0.69569800  1
  Pd  Pd19  1  0.00000000  0.50000000  0.89149092  1
