# generated using pymatgen
data_Fe2NiCl
_symmetry_space_group_name_H-M   'P 1'
_cell_length_a   4.83089641
_cell_length_b   4.83089641
_cell_length_c   4.83089642
_cell_angle_alpha   136.08653466
_cell_angle_beta   136.08653467
_cell_angle_gamma   63.84661535
_symmetry_Int_Tables_number   1
_chemical_formula_structural   Fe2NiCl
_chemical_formula_sum   'Fe2 Ni1 Cl1'
_cell_volume   53.51209608
_cell_formula_units_Z   1
loop_
 _symmetry_equiv_pos_site_id
 _symmetry_equiv_pos_as_xyz
  1  'x, y, z'
loop_
 _atom_site_type_symbol
 _atom_site_label
 _atom_site_symmetry_multiplicity
 _atom_site_fract_x
 _atom_site_fract_y
 _atom_site_fract_z
 _atom_site_occupancy
  Ni  Ni0  1  0.50000000  0.50000000  -0.00000000  1
  Fe  Fe1  1  0.00000000  0.00000000  0.00000000  1
  Fe  Fe2  1  0.25000000  0.75000000  0.50000000  1
  Cl  Cl3  1  0.75000000  0.25000000  0.50000000  1
