# generated using pymatgen
data_Hf5SnB2
_symmetry_space_group_name_H-M   'P 1'
_cell_length_a   6.78355570
_cell_length_b   6.78355499
_cell_length_c   7.84262401
_cell_angle_alpha   115.62504858
_cell_angle_beta   115.62504885
_cell_angle_gamma   90.00000003
_symmetry_Int_Tables_number   1
_chemical_formula_structural   Hf5SnB2
_chemical_formula_sum   'Hf10 Sn2 B4'
_cell_volume   285.51984453
_cell_formula_units_Z   2
loop_
 _symmetry_equiv_pos_site_id
 _symmetry_equiv_pos_as_xyz
  1  'x, y, z'
loop_
 _atom_site_type_symbol
 _atom_site_label
 _atom_site_symmetry_multiplicity
 _atom_site_fract_x
 _atom_site_fract_y
 _atom_site_fract_z
 _atom_site_occupancy
  Hf  Hf0  1  0.52943829  0.71634526  0.74578355  1
  Hf  Hf1  1  0.78365474  0.97056171  0.25421645  1
  Hf  Hf2  1  0.00000000  0.00000000  0.00000000  1
  Hf  Hf3  1  0.50000000  0.50000000  -0.00000000  1
  Hf  Hf4  1  0.21634526  0.02943829  0.74578355  1
  Hf  Hf5  1  0.71634526  0.21634526  0.74578355  1
  Hf  Hf6  1  0.02943829  0.52943829  0.74578355  1
  Hf  Hf7  1  0.28365474  0.78365474  0.25421645  1
  Hf  Hf8  1  0.97056171  0.47056171  0.25421645  1
  Hf  Hf9  1  0.47056171  0.28365474  0.25421645  1
  Sn  Sn10  1  0.75000000  0.75000000  0.50000000  1
  Sn  Sn11  1  0.25000000  0.25000000  0.50000000  1
  B  B12  1  0.15333233  0.34666767  0.00000000  1
  B  B13  1  0.65333233  0.15333333  1.00000000  1
  B  B14  1  0.34666667  0.84666767  -0.00000000  1
  B  B15  1  0.84666667  0.65333333  1.00000000  1
