# generated using pymatgen
data_Rb2V(PO4)2
_symmetry_space_group_name_H-M   'P 1'
_cell_length_a   7.31916017
_cell_length_b   9.65438710
_cell_length_c   12.83007131
_cell_angle_alpha   90.00000000
_cell_angle_beta   90.00000000
_cell_angle_gamma   90.00000000
_symmetry_Int_Tables_number   1
_chemical_formula_structural   Rb2V(PO4)2
_chemical_formula_sum   'Rb8 V4 P8 O32'
_cell_volume   906.59856983
_cell_formula_units_Z   4
loop_
 _symmetry_equiv_pos_site_id
 _symmetry_equiv_pos_as_xyz
  1  'x, y, z'
loop_
 _atom_site_type_symbol
 _atom_site_label
 _atom_site_symmetry_multiplicity
 _atom_site_fract_x
 _atom_site_fract_y
 _atom_site_fract_z
 _atom_site_occupancy
  Rb  Rb0  1  0.25000000  0.58620328  0.89776856  1
  Rb  Rb1  1  0.25000000  0.91379672  0.39776856  1
  Rb  Rb2  1  0.75000000  0.41379672  0.10223144  1
  Rb  Rb3  1  0.75000000  0.08620328  0.60223144  1
  Rb  Rb4  1  0.25000000  0.36560963  0.59229208  1
  Rb  Rb5  1  0.25000000  0.13439037  0.09229208  1
  Rb  Rb6  1  0.75000000  0.63439037  0.40770792  1
  Rb  Rb7  1  0.75000000  0.86560963  0.90770792  1
  V  V8  1  0.25000000  0.03032775  0.78652684  1
  V  V9  1  0.25000000  0.46967225  0.28652684  1
  V  V10  1  0.75000000  0.96967225  0.21347316  1
  V  V11  1  0.75000000  0.53032775  0.71347316  1
  P  P12  1  0.04690358  0.78023825  0.65495152  1
  P  P13  1  0.45309642  0.71976175  0.15495152  1
  P  P14  1  0.54690358  0.21976175  0.34504848  1
  P  P15  1  0.95309642  0.28023825  0.84504848  1
  P  P16  1  0.95309642  0.21976175  0.34504848  1
  P  P17  1  0.54690358  0.28023825  0.84504848  1
  P  P18  1  0.45309642  0.78023825  0.65495152  1
  P  P19  1  0.04690358  0.71976175  0.15495152  1
  O  O20  1  0.25000000  0.97107110  0.90617364  1
  O  O21  1  0.25000000  0.52892890  0.40617364  1
  O  O22  1  0.75000000  0.02892890  0.09382636  1
  O  O23  1  0.75000000  0.47107110  0.59382636  1
  O  O24  1  0.93365221  0.68317899  0.72498258  1
  O  O25  1  0.56634779  0.81682101  0.22498258  1
  O  O26  1  0.43365221  0.31682101  0.27501742  1
  O  O27  1  0.06634779  0.18317899  0.77501742  1
  O  O28  1  0.06634779  0.31682101  0.27501742  1
  O  O29  1  0.43365221  0.18317899  0.77501742  1
  O  O30  1  0.56634779  0.68317899  0.72498258  1
  O  O31  1  0.93365221  0.81682101  0.22498258  1
  O  O32  1  0.98933304  0.79278769  0.54316148  1
  O  O33  1  0.51066696  0.70721231  0.04316148  1
  O  O34  1  0.48933304  0.20721231  0.45683852  1
  O  O35  1  0.01066696  0.29278769  0.95683852  1
  O  O36  1  0.01066696  0.20721231  0.45683852  1
  O  O37  1  0.48933304  0.29278769  0.95683852  1
  O  O38  1  0.51066696  0.79278769  0.54316148  1
  O  O39  1  0.98933304  0.70721231  0.04316148  1
  O  O40  1  0.06062961  0.92316567  0.71019231  1
  O  O41  1  0.43937039  0.57683433  0.21019231  1
  O  O42  1  0.56062961  0.07683433  0.28980769  1
  O  O43  1  0.93937039  0.42316567  0.78980769  1
  O  O44  1  0.93937039  0.07683433  0.28980769  1
  O  O45  1  0.56062961  0.42316567  0.78980769  1
  O  O46  1  0.43937039  0.92316567  0.71019231  1
  O  O47  1  0.06062961  0.57683433  0.21019231  1
  O  O48  1  0.25000000  0.70895117  0.66339367  1
  O  O49  1  0.25000000  0.79104883  0.16339367  1
  O  O50  1  0.75000000  0.29104883  0.33660633  1
  O  O51  1  0.75000000  0.20895117  0.83660633  1
