# generated using pymatgen
data_Hf6ZrSn3
_symmetry_space_group_name_H-M   'P 1'
_cell_length_a   7.54075172
_cell_length_b   7.85250658
_cell_length_c   7.85250659
_cell_angle_alpha   92.13289657
_cell_angle_beta   90.00000000
_cell_angle_gamma   90.00000000
_symmetry_Int_Tables_number   1
_chemical_formula_structural   Hf6ZrSn3
_chemical_formula_sum   'Hf12 Zr2 Sn6'
_cell_volume   464.65463379
_cell_formula_units_Z   2
loop_
 _symmetry_equiv_pos_site_id
 _symmetry_equiv_pos_as_xyz
  1  'x, y, z'
loop_
 _atom_site_type_symbol
 _atom_site_label
 _atom_site_symmetry_multiplicity
 _atom_site_fract_x
 _atom_site_fract_y
 _atom_site_fract_z
 _atom_site_occupancy
  Hf  Hf0  1  0.16324798  0.70834717  0.58159234  1
  Hf  Hf1  1  0.66324798  0.58159234  0.70834717  1
  Hf  Hf2  1  0.33373674  0.55806083  0.95968679  1
  Hf  Hf3  1  0.83373674  0.95968679  0.55806083  1
  Hf  Hf4  1  0.13214626  0.10882647  0.89117353  1
  Hf  Hf5  1  0.64481670  0.20500227  0.79499773  1
  Hf  Hf6  1  0.14481670  0.79499773  0.20500227  1
  Hf  Hf7  1  0.63214626  0.89117353  0.10882647  1
  Hf  Hf8  1  0.33373674  0.04031321  0.44193917  1
  Hf  Hf9  1  0.83373674  0.44193917  0.04031321  1
  Hf  Hf10  1  0.16324798  0.41840766  0.29165283  1
  Hf  Hf11  1  0.66324798  0.29165283  0.41840766  1
  Zr  Zr12  1  0.96870704  0.34352242  0.65647758  1
  Zr  Zr13  1  0.46870704  0.65647758  0.34352242  1
  Sn  Sn14  1  0.44917458  0.88399564  0.76442439  1
  Sn  Sn15  1  0.94917458  0.76442439  0.88399564  1
  Sn  Sn16  1  0.34737039  0.37558895  0.62441105  1
  Sn  Sn17  1  0.84737039  0.62441105  0.37558895  1
  Sn  Sn18  1  0.94917458  0.11600436  0.23557561  1
  Sn  Sn19  1  0.44917458  0.23557561  0.11600436  1
