# generated using pymatgen
data_LiLa2
_symmetry_space_group_name_H-M   'P 1'
_cell_length_a   6.63307607
_cell_length_b   6.63307607
_cell_length_c   11.16015174
_cell_angle_alpha   90.00000000
_cell_angle_beta   90.00000000
_cell_angle_gamma   119.99999997
_symmetry_Int_Tables_number   1
_chemical_formula_structural   LiLa2
_chemical_formula_sum   'Li4 La8'
_cell_volume   425.23664889
_cell_formula_units_Z   4
loop_
 _symmetry_equiv_pos_site_id
 _symmetry_equiv_pos_as_xyz
  1  'x, y, z'
loop_
 _atom_site_type_symbol
 _atom_site_label
 _atom_site_symmetry_multiplicity
 _atom_site_fract_x
 _atom_site_fract_y
 _atom_site_fract_z
 _atom_site_occupancy
  Li  Li0  1  0.33333333  0.66666667  0.05936376  1
  Li  Li1  1  0.66666667  0.33333333  0.55936376  1
  Li  Li2  1  0.66666667  0.33333333  0.94063624  1
  Li  Li3  1  0.33333333  0.66666667  0.44063624  1
  La  La4  1  0.00000000  0.00000000  0.00000000  1
  La  La5  1  0.00000000  0.00000000  0.50000000  1
  La  La6  1  0.82378330  0.64756659  0.25000000  1
  La  La7  1  0.17621670  0.35243341  0.75000000  1
  La  La8  1  0.35243341  0.17621670  0.25000000  1
  La  La9  1  0.82378330  0.17621670  0.25000000  1
  La  La10  1  0.17621670  0.82378330  0.75000000  1
  La  La11  1  0.64756659  0.82378330  0.75000000  1
