# generated using pymatgen
data_PuZr5Ru4
_symmetry_space_group_name_H-M   'P 1'
_cell_length_a   3.26571402
_cell_length_b   3.26571503
_cell_length_c   17.61907351
_cell_angle_alpha   90.00000000
_cell_angle_beta   90.00000000
_cell_angle_gamma   90.00000000
_symmetry_Int_Tables_number   1
_chemical_formula_structural   PuZr5Ru4
_chemical_formula_sum   'Pu1 Zr5 Ru4'
_cell_volume   187.90550483
_cell_formula_units_Z   1
loop_
 _symmetry_equiv_pos_site_id
 _symmetry_equiv_pos_as_xyz
  1  'x, y, z'
loop_
 _atom_site_type_symbol
 _atom_site_label
 _atom_site_symmetry_multiplicity
 _atom_site_fract_x
 _atom_site_fract_y
 _atom_site_fract_z
 _atom_site_occupancy
  Pu  Pu0  1  0.00000000  0.00000000  0.00000000  1
  Zr  Zr1  1  0.50000000  0.50000000  0.12622659  1
  Zr  Zr2  1  0.50000000  0.50000000  0.31280991  1
  Zr  Zr3  1  0.50000000  0.50000000  0.50000000  1
  Zr  Zr4  1  0.50000000  0.50000000  0.68719009  1
  Zr  Zr5  1  0.50000000  0.50000000  0.87377341  1
  Ru  Ru6  1  0.00000000  0.00000000  0.21982507  1
  Ru  Ru7  1  0.00000000  0.00000000  0.40644457  1
  Ru  Ru8  1  0.00000000  0.00000000  0.59355543  1
  Ru  Ru9  1  0.00000000  0.00000000  0.78017493  1
