# generated using pymatgen
data_Er3In3Ni2
_symmetry_space_group_name_H-M   'P 1'
_cell_length_a   4.33512979
_cell_length_b   4.97811839
_cell_length_c   8.65228265
_cell_angle_alpha   100.46939522
_cell_angle_beta   104.50825137
_cell_angle_gamma   90.00000000
_symmetry_Int_Tables_number   1
_chemical_formula_structural   Er3In3Ni2
_chemical_formula_sum   'Er3 In3 Ni2'
_cell_volume   177.55602386
_cell_formula_units_Z   1
loop_
 _symmetry_equiv_pos_site_id
 _symmetry_equiv_pos_as_xyz
  1  'x, y, z'
loop_
 _atom_site_type_symbol
 _atom_site_label
 _atom_site_symmetry_multiplicity
 _atom_site_fract_x
 _atom_site_fract_y
 _atom_site_fract_z
 _atom_site_occupancy
  Er  Er0  1  0.16752283  0.59893236  0.33504666  1
  Er  Er1  1  0.83247717  0.40106764  0.66495334  1
  Er  Er2  1  0.00000000  0.00000000  0.00000000  1
  In  In3  1  0.63809778  0.08567802  0.27619555  1
  In  In4  1  0.50000000  0.50000000  0.00000000  1
  In  In5  1  0.36190222  0.91432198  0.72380445  1
  Ni  Ni6  1  0.22782648  0.13089460  0.45565297  1
  Ni  Ni7  1  0.77217352  0.86910540  0.54434703  1
