# generated using pymatgen
data_ZnGaCuAu3
_symmetry_space_group_name_H-M   'P 1'
_cell_length_a   3.88533995
_cell_length_b   6.42663775
_cell_length_c   8.56342881
_cell_angle_alpha   113.43114269
_cell_angle_beta   90.00000000
_cell_angle_gamma   90.00000000
_symmetry_Int_Tables_number   1
_chemical_formula_structural   ZnGaCuAu3
_chemical_formula_sum   'Zn2 Ga2 Cu2 Au6'
_cell_volume   196.19362474
_cell_formula_units_Z   2
loop_
 _symmetry_equiv_pos_site_id
 _symmetry_equiv_pos_as_xyz
  1  'x, y, z'
loop_
 _atom_site_type_symbol
 _atom_site_label
 _atom_site_symmetry_multiplicity
 _atom_site_fract_x
 _atom_site_fract_y
 _atom_site_fract_z
 _atom_site_occupancy
  Zn  Zn0  1  0.75000000  0.84934779  0.69658645  1
  Zn  Zn1  1  0.25000000  0.15065221  0.30341355  1
  Ga  Ga2  1  0.25000000  0.67116955  0.15735657  1
  Ga  Ga3  1  0.75000000  0.32883045  0.84264343  1
  Cu  Cu4  1  0.25000000  0.11146228  0.60933298  1
  Cu  Cu5  1  0.75000000  0.88853772  0.39066702  1
  Au  Au6  1  0.25000000  0.64726412  0.46830367  1
  Au  Au7  1  0.75000000  0.89330877  0.07124423  1
  Au  Au8  1  0.75000000  0.39882881  0.18791594  1
  Au  Au9  1  0.75000000  0.35273588  0.53169633  1
  Au  Au10  1  0.25000000  0.60117119  0.81208406  1
  Au  Au11  1  0.25000000  0.10669123  0.92875577  1
