# generated using pymatgen
data_Zr4MoRh
_symmetry_space_group_name_H-M   'P 1'
_cell_length_a   5.57624883
_cell_length_b   5.57624883
_cell_length_c   5.57624883
_cell_angle_alpha   60.00000000
_cell_angle_beta   60.00000000
_cell_angle_gamma   60.00000000
_symmetry_Int_Tables_number   1
_chemical_formula_structural   Zr4MoRh
_chemical_formula_sum   'Zr4 Mo1 Rh1'
_cell_volume   122.60591905
_cell_formula_units_Z   1
loop_
 _symmetry_equiv_pos_site_id
 _symmetry_equiv_pos_as_xyz
  1  'x, y, z'
loop_
 _atom_site_type_symbol
 _atom_site_label
 _atom_site_symmetry_multiplicity
 _atom_site_fract_x
 _atom_site_fract_y
 _atom_site_fract_z
 _atom_site_occupancy
  Zr  Zr0  1  0.87513292  0.37495569  0.37495569  1
  Zr  Zr1  1  0.37495569  0.37495569  0.87513292  1
  Zr  Zr2  1  0.37495569  0.87513292  0.37495569  1
  Zr  Zr3  1  0.37495569  0.37495569  0.37495569  1
  Mo  Mo4  1  0.75000000  0.75000000  0.75000000  1
  Rh  Rh5  1  0.00000000  0.00000000  0.00000000  1
