# generated using pymatgen
data_NdMnZn2
_symmetry_space_group_name_H-M   'P 1'
_cell_length_a   4.47432829
_cell_length_b   5.50522287
_cell_length_c   6.88440616
_cell_angle_alpha   90.00000000
_cell_angle_beta   90.00000000
_cell_angle_gamma   113.86552980
_symmetry_Int_Tables_number   1
_chemical_formula_structural   NdMnZn2
_chemical_formula_sum   'Nd2 Mn2 Zn4'
_cell_volume   155.07856469
_cell_formula_units_Z   2
loop_
 _symmetry_equiv_pos_site_id
 _symmetry_equiv_pos_as_xyz
  1  'x, y, z'
loop_
 _atom_site_type_symbol
 _atom_site_label
 _atom_site_symmetry_multiplicity
 _atom_site_fract_x
 _atom_site_fract_y
 _atom_site_fract_z
 _atom_site_occupancy
  Zn  Zn0  1  0.12893351  0.25804611  0.56287505  1
  Zn  Zn1  1  0.87106649  0.74195389  0.43712495  1
  Zn  Zn2  1  0.12893351  0.25804611  0.93712495  1
  Zn  Zn3  1  0.87106649  0.74195389  0.06287505  1
  Mn  Mn4  1  0.70840401  0.41743457  0.75000000  1
  Mn  Mn5  1  0.29159599  0.58256543  0.25000000  1
  Nd  Nd6  1  0.57908968  0.15769050  0.25000000  1
  Nd  Nd7  1  0.42091032  0.84230950  0.75000000  1
