# generated using pymatgen
data_TiAlVTcRh
_symmetry_space_group_name_H-M   'P 1'
_cell_length_a   6.82905089
_cell_length_b   3.11513662
_cell_length_c   9.45653087
_cell_angle_alpha   90.00000000
_cell_angle_beta   133.56046332
_cell_angle_gamma   90.00000000
_symmetry_Int_Tables_number   1
_chemical_formula_structural   TiAlVTcRh
_chemical_formula_sum   'Ti2 Al2 V2 Tc2 Rh2'
_cell_volume   145.77938861
_cell_formula_units_Z   2
loop_
 _symmetry_equiv_pos_site_id
 _symmetry_equiv_pos_as_xyz
  1  'x, y, z'
loop_
 _atom_site_type_symbol
 _atom_site_label
 _atom_site_symmetry_multiplicity
 _atom_site_fract_x
 _atom_site_fract_y
 _atom_site_fract_z
 _atom_site_occupancy
  Al  Al0  1  0.73320953  0.00000000  0.81132716  1
  Al  Al1  1  0.73320953  0.50000000  0.31132716  1
  Ti  Ti2  1  0.94719873  0.00000000  0.63429603  1
  Ti  Ti3  1  0.94719873  0.50000000  0.13429603  1
  Rh  Rh4  1  0.13622343  0.00000000  0.43326994  1
  Rh  Rh5  1  0.13622343  0.50000000  0.93326994  1
  Tc  Tc6  1  0.54209698  0.00000000  0.00218850  1
  Tc  Tc7  1  0.54209698  0.50000000  0.50218850  1
  V  V8  1  0.34626132  0.00000000  0.23189836  1
  V  V9  1  0.34626132  0.50000000  0.73189836  1
