# generated using pymatgen
data_Li2HfTa
_symmetry_space_group_name_H-M   'P 1'
_cell_length_a   7.34298978
_cell_length_b   7.34298978
_cell_length_c   5.81789948
_cell_angle_alpha   50.87097862
_cell_angle_beta   50.87097862
_cell_angle_gamma   90.00000000
_symmetry_Int_Tables_number   1
_chemical_formula_structural   Li2HfTa
_chemical_formula_sum   'Li4 Hf2 Ta2'
_cell_volume   141.51382667
_cell_formula_units_Z   2
loop_
 _symmetry_equiv_pos_site_id
 _symmetry_equiv_pos_as_xyz
  1  'x, y, z'
loop_
 _atom_site_type_symbol
 _atom_site_label
 _atom_site_symmetry_multiplicity
 _atom_site_fract_x
 _atom_site_fract_y
 _atom_site_fract_z
 _atom_site_occupancy
  Li  Li0  1  0.62806686  0.12500000  0.25000000  1
  Li  Li1  1  0.12193314  0.62500000  0.25000000  1
  Li  Li2  1  0.37500000  0.37193314  0.75000000  1
  Li  Li3  1  0.87500000  0.87806686  0.75000000  1
  Hf  Hf4  1  0.50000000  0.50000000  0.00000000  1
  Hf  Hf5  1  0.25000000  0.75000000  0.50000000  1
  Ta  Ta6  1  0.00000000  0.00000000  0.00000000  1
  Ta  Ta7  1  0.75000000  0.25000000  0.50000000  1
