# generated using pymatgen
data_TlCd4(HgPb)2
_symmetry_space_group_name_H-M   'P 1'
_cell_length_a   3.45807121
_cell_length_b   3.45807181
_cell_length_c   23.33863755
_cell_angle_alpha   90.00000000
_cell_angle_beta   90.00000000
_cell_angle_gamma   119.99999418
_symmetry_Int_Tables_number   1
_chemical_formula_structural   TlCd4(HgPb)2
_chemical_formula_sum   'Tl1 Cd4 Hg2 Pb2'
_cell_volume   241.69857849
_cell_formula_units_Z   1
loop_
 _symmetry_equiv_pos_site_id
 _symmetry_equiv_pos_as_xyz
  1  'x, y, z'
loop_
 _atom_site_type_symbol
 _atom_site_label
 _atom_site_symmetry_multiplicity
 _atom_site_fract_x
 _atom_site_fract_y
 _atom_site_fract_z
 _atom_site_occupancy
  Tl  Tl0  1  0.00000000  0.00000000  0.32296516  1
  Cd  Cd1  1  0.00000000  0.00000000  0.56794414  1
  Cd  Cd2  1  0.66666667  0.33333333  0.06738270  1
  Cd  Cd3  1  0.66666667  0.33333333  0.86659988  1
  Cd  Cd4  1  0.00000000  0.00000000  0.76691248  1
  Hg  Hg5  1  0.00000000  0.00000000  0.96743001  1
  Hg  Hg6  1  0.66666667  0.33333333  0.66696616  1
  Pb  Pb7  1  0.66666667  0.33333333  0.45441258  1
  Pb  Pb8  1  0.66666667  0.33333333  0.19654588  1
