# generated using pymatgen
data_Ho8Os2Pt
_symmetry_space_group_name_H-M   'P 1'
_cell_length_a   5.77507636
_cell_length_b   7.53641837
_cell_length_c   7.53641863
_cell_angle_alpha   111.33322167
_cell_angle_beta   99.91912177
_cell_angle_gamma   99.91910843
_symmetry_Int_Tables_number   1
_chemical_formula_structural   Ho8Os2Pt
_chemical_formula_sum   'Ho8 Os2 Pt1'
_cell_volume   290.93643653
_cell_formula_units_Z   1
loop_
 _symmetry_equiv_pos_site_id
 _symmetry_equiv_pos_as_xyz
  1  'x, y, z'
loop_
 _atom_site_type_symbol
 _atom_site_label
 _atom_site_symmetry_multiplicity
 _atom_site_fract_x
 _atom_site_fract_y
 _atom_site_fract_z
 _atom_site_occupancy
  Os  Os0  1  0.48846803  0.69374625  0.31742482  1
  Os  Os1  1  0.48846803  0.31742482  0.69374625  1
  Ho  Ho2  1  0.58164570  0.34049302  0.07742780  1
  Ho  Ho3  1  0.58164570  0.07742780  0.34049302  1
  Ho  Ho4  1  0.18228974  0.36782088  0.36782088  1
  Ho  Ho5  1  0.98847737  0.22112554  0.78095235  1
  Ho  Ho6  1  0.98847737  0.78095235  0.22112554  1
  Ho  Ho7  1  0.79361775  0.63540087  0.63539987  1
  Ho  Ho8  1  0.38665416  0.93152031  0.66815510  1
  Ho  Ho9  1  0.38665416  0.66815510  0.93152031  1
  Pt  Pt10  1  0.13326899  0.99986806  0.99986806  1
