# generated using pymatgen
data_VNiSn
_symmetry_space_group_name_H-M   'P 1'
_cell_length_a   3.44090182
_cell_length_b   4.28393354
_cell_length_c   12.41041713
_cell_angle_alpha   90.00000000
_cell_angle_beta   90.00000000
_cell_angle_gamma   90.00000000
_symmetry_Int_Tables_number   1
_chemical_formula_structural   VNiSn
_chemical_formula_sum   'V4 Ni4 Sn4'
_cell_volume   182.93692915
_cell_formula_units_Z   4
loop_
 _symmetry_equiv_pos_site_id
 _symmetry_equiv_pos_as_xyz
  1  'x, y, z'
loop_
 _atom_site_type_symbol
 _atom_site_label
 _atom_site_symmetry_multiplicity
 _atom_site_fract_x
 _atom_site_fract_y
 _atom_site_fract_z
 _atom_site_occupancy
  Ni  Ni0  1  0.50000000  0.00000000  0.42145500  1
  Ni  Ni1  1  0.50000000  0.50000000  0.92145500  1
  Ni  Ni2  1  0.50000000  0.00000000  0.76516024  1
  Ni  Ni3  1  0.50000000  0.50000000  0.26516024  1
  Sn  Sn4  1  0.00000000  0.00000000  0.58143891  1
  Sn  Sn5  1  0.00000000  0.50000000  0.08143891  1
  Sn  Sn6  1  0.00000000  0.00000000  0.26994690  1
  Sn  Sn7  1  0.00000000  0.50000000  0.76994690  1
  V  V8  1  0.50000000  0.00000000  0.08279438  1
  V  V9  1  0.50000000  0.50000000  0.58279438  1
  V  V10  1  0.00000000  0.00000000  0.93207456  1
  V  V11  1  0.00000000  0.50000000  0.43207456  1
