# generated using pymatgen
data_Pr2Nd2Sb5
_symmetry_space_group_name_H-M   'P 1'
_cell_length_a   8.40475925
_cell_length_b   9.17977874
_cell_length_c   9.17977796
_cell_angle_alpha   126.48674609
_cell_angle_beta   90.00000000
_cell_angle_gamma   90.00000000
_symmetry_Int_Tables_number   1
_chemical_formula_structural   Pr2Nd2Sb5
_chemical_formula_sum   'Pr4 Nd4 Sb10'
_cell_volume   569.43310404
_cell_formula_units_Z   2
loop_
 _symmetry_equiv_pos_site_id
 _symmetry_equiv_pos_as_xyz
  1  'x, y, z'
loop_
 _atom_site_type_symbol
 _atom_site_label
 _atom_site_symmetry_multiplicity
 _atom_site_fract_x
 _atom_site_fract_y
 _atom_site_fract_z
 _atom_site_occupancy
  Pr  Pr0  1  0.33644871  0.16071359  0.16071359  1
  Pr  Pr1  1  0.66355129  0.83928641  0.83928641  1
  Pr  Pr2  1  0.83644871  0.33928641  0.33928641  1
  Pr  Pr3  1  0.16355129  0.66071359  0.66071359  1
  Nd  Nd4  1  0.00000000  0.81071509  0.18928491  1
  Nd  Nd5  1  0.50000000  0.31071509  0.68928391  1
  Nd  Nd6  1  0.00000000  0.18928491  0.81071509  1
  Nd  Nd7  1  0.50000000  0.68928491  0.31071509  1
  Sb  Sb8  1  0.00000000  0.00000000  0.00000000  1
  Sb  Sb9  1  0.50000000  0.50000000  0.50000000  1
  Sb  Sb10  1  0.13788181  0.22239841  0.50324984  1
  Sb  Sb11  1  0.86211819  0.49675016  0.77760159  1
  Sb  Sb12  1  0.63788181  0.99675016  0.27760159  1
  Sb  Sb13  1  0.36211819  0.72239841  0.00324984  1
  Sb  Sb14  1  0.86211819  0.77760159  0.49675016  1
  Sb  Sb15  1  0.13788181  0.50324984  0.22239841  1
  Sb  Sb16  1  0.36211819  0.00324984  0.72239841  1
  Sb  Sb17  1  0.63788181  0.27760159  0.99675016  1
