# generated using pymatgen
data_La2Tb3Sm6Mg
_symmetry_space_group_name_H-M   'P 1'
_cell_length_a   6.23772134
_cell_length_b   6.23772134
_cell_length_c   11.94153089
_cell_angle_alpha   95.06850133
_cell_angle_beta   95.06850138
_cell_angle_gamma   120.05408905
_symmetry_Int_Tables_number   1
_chemical_formula_structural   La2Tb3Sm6Mg
_chemical_formula_sum   'La2 Tb3 Sm6 Mg1'
_cell_volume   395.82808938
_cell_formula_units_Z   1
loop_
 _symmetry_equiv_pos_site_id
 _symmetry_equiv_pos_as_xyz
  1  'x, y, z'
loop_
 _atom_site_type_symbol
 _atom_site_label
 _atom_site_symmetry_multiplicity
 _atom_site_fract_x
 _atom_site_fract_y
 _atom_site_fract_z
 _atom_site_occupancy
  La  La0  1  0.33271939  0.66728061  -0.00000000  1
  La  La1  1  0.66728061  0.33271939  -0.00000000  1
  Tb  Tb2  1  0.16602025  0.83397975  0.50000000  1
  Tb  Tb3  1  0.83397975  0.16602025  0.50000000  1
  Tb  Tb4  1  0.50000000  0.50000000  0.50000000  1
  Sm  Sm5  1  0.91667147  0.58694968  0.74713979  1
  Sm  Sm6  1  0.75304852  0.75304852  0.25407279  1
  Sm  Sm7  1  0.08332853  0.41305032  0.25286021  1
  Sm  Sm8  1  0.58694968  0.91667147  0.74713979  1
  Sm  Sm9  1  0.24695148  0.24695148  0.74592721  1
  Sm  Sm10  1  0.41305032  0.08332853  0.25286021  1
  Mg  Mg11  1  0.00000000  0.00000000  0.00000000  1
