# generated using pymatgen
data_Nd3Dy7
_symmetry_space_group_name_H-M   'P 1'
_cell_length_a   5.06305674
_cell_length_b   7.17940498
_cell_length_c   9.47322554
_cell_angle_alpha   100.88749292
_cell_angle_beta   105.49949796
_cell_angle_gamma   89.99999979
_symmetry_Int_Tables_number   1
_chemical_formula_structural   Nd3Dy7
_chemical_formula_sum   'Nd3 Dy7'
_cell_volume   325.38945692
_cell_formula_units_Z   1
loop_
 _symmetry_equiv_pos_site_id
 _symmetry_equiv_pos_as_xyz
  1  'x, y, z'
loop_
 _atom_site_type_symbol
 _atom_site_label
 _atom_site_symmetry_multiplicity
 _atom_site_fract_x
 _atom_site_fract_y
 _atom_site_fract_z
 _atom_site_occupancy
  Nd  Nd0  1  0.00000000  0.00000000  0.00000000  1
  Nd  Nd1  1  0.80126862  0.39959328  0.60253625  1
  Nd  Nd2  1  0.19873138  0.60040672  0.39746375  1
  Dy  Dy3  1  -0.00000000  0.50000000  -0.00000000  1
  Dy  Dy4  1  0.80023036  0.90032259  0.60046071  1
  Dy  Dy5  1  0.19976964  0.09967741  0.39953929  1
  Dy  Dy6  1  0.59939871  0.29967788  0.19879843  1
  Dy  Dy7  1  0.40060129  0.70032212  0.80120157  1
  Dy  Dy8  1  0.60012251  0.80102511  0.20024503  1
  Dy  Dy9  1  0.39987749  0.19897489  0.79975497  1
