# generated using pymatgen
data_KNa2LiPd
_symmetry_space_group_name_H-M   'P 1'
_cell_length_a   5.65293894
_cell_length_b   5.65293894
_cell_length_c   5.05630716
_cell_angle_alpha   90.00000000
_cell_angle_beta   90.00000000
_cell_angle_gamma   90.00000000
_symmetry_Int_Tables_number   1
_chemical_formula_structural   KNa2LiPd
_chemical_formula_sum   'K1 Na2 Li1 Pd1'
_cell_volume   161.57792906
_cell_formula_units_Z   1
loop_
 _symmetry_equiv_pos_site_id
 _symmetry_equiv_pos_as_xyz
  1  'x, y, z'
loop_
 _atom_site_type_symbol
 _atom_site_label
 _atom_site_symmetry_multiplicity
 _atom_site_fract_x
 _atom_site_fract_y
 _atom_site_fract_z
 _atom_site_occupancy
  Na  Na0  1  0.00000000  0.50000000  0.00000000  1
  Na  Na1  1  0.50000000  0.00000000  0.00000000  1
  K  K2  1  0.50000000  0.50000000  0.50000000  1
  Pd  Pd3  1  0.00000000  0.00000000  0.00000000  1
  Li  Li4  1  0.00000000  0.00000000  0.50000000  1
