# generated using pymatgen
data_Y2AgSb
_symmetry_space_group_name_H-M   'P 1'
_cell_length_a   5.39114401
_cell_length_b   5.39114399
_cell_length_c   5.39114401
_cell_angle_alpha   125.10976549
_cell_angle_beta   125.07133624
_cell_angle_gamma   81.38808144
_symmetry_Int_Tables_number   1
_chemical_formula_structural   Y2AgSb
_chemical_formula_sum   'Y2 Ag1 Sb1'
_cell_volume   101.01344463
_cell_formula_units_Z   1
loop_
 _symmetry_equiv_pos_site_id
 _symmetry_equiv_pos_as_xyz
  1  'x, y, z'
loop_
 _atom_site_type_symbol
 _atom_site_label
 _atom_site_symmetry_multiplicity
 _atom_site_fract_x
 _atom_site_fract_y
 _atom_site_fract_z
 _atom_site_occupancy
  Ag  Ag0  1  0.75000000  0.25000000  0.50000000  1
  Sb  Sb1  1  0.25000000  0.75000000  0.50000000  1
  Y  Y2  1  0.99999613  0.99999613  1.00000000  1
  Y  Y3  1  0.50000387  0.50000387  0.00000000  1
