# generated using pymatgen
data_BaSc(AsS4)2
_symmetry_space_group_name_H-M   'P 1'
_cell_length_a   6.12683424
_cell_length_b   6.12683424
_cell_length_c   9.05849404
_cell_angle_alpha   90.00000000
_cell_angle_beta   90.00000000
_cell_angle_gamma   120.00000008
_symmetry_Int_Tables_number   1
_chemical_formula_structural   BaSc(AsS4)2
_chemical_formula_sum   'Ba1 Sc1 As2 S8'
_cell_volume   294.48209629
_cell_formula_units_Z   1
loop_
 _symmetry_equiv_pos_site_id
 _symmetry_equiv_pos_as_xyz
  1  'x, y, z'
loop_
 _atom_site_type_symbol
 _atom_site_label
 _atom_site_symmetry_multiplicity
 _atom_site_fract_x
 _atom_site_fract_y
 _atom_site_fract_z
 _atom_site_occupancy
  Ba  Ba0  1  0.00000000  0.00000000  0.00000000  1
  Sc  Sc1  1  0.00000000  0.00000000  0.50000000  1
  As  As2  1  0.66666667  0.33333333  0.25908827  1
  As  As3  1  0.33333333  0.66666667  0.74091173  1
  S  S4  1  0.33333333  0.66666667  0.98164316  1
  S  S5  1  0.31759932  0.33477199  0.31909295  1
  S  S6  1  0.66522801  0.98282733  0.31909295  1
  S  S7  1  0.66666667  0.33333333  0.01835684  1
  S  S8  1  0.33477199  0.01717267  0.68090705  1
  S  S9  1  0.68240068  0.66522801  0.68090705  1
  S  S10  1  0.98282733  0.31759932  0.68090705  1
  S  S11  1  0.01717267  0.68240068  0.31909295  1
