# generated using pymatgen
data_Ba(TlIn)4
_symmetry_space_group_name_H-M   'P 1'
_cell_length_a   7.20643062
_cell_length_b   7.20643062
_cell_length_c   11.31370545
_cell_angle_alpha   90.00000000
_cell_angle_beta   90.00000000
_cell_angle_gamma   90.00000000
_symmetry_Int_Tables_number   1
_chemical_formula_structural   Ba(TlIn)4
_chemical_formula_sum   'Ba2 Tl8 In8'
_cell_volume   587.55061801
_cell_formula_units_Z   2
loop_
 _symmetry_equiv_pos_site_id
 _symmetry_equiv_pos_as_xyz
  1  'x, y, z'
loop_
 _atom_site_type_symbol
 _atom_site_label
 _atom_site_symmetry_multiplicity
 _atom_site_fract_x
 _atom_site_fract_y
 _atom_site_fract_z
 _atom_site_occupancy
  Ba  Ba0  1  0.00000000  0.00000000  0.00000000  1
  Ba  Ba1  1  0.50000000  0.50000000  0.50000000  1
  Tl  Tl2  1  0.22311264  0.50000000  0.91602307  1
  Tl  Tl3  1  0.77688736  0.50000000  0.91602307  1
  Tl  Tl4  1  0.50000000  0.77688736  0.08397693  1
  Tl  Tl5  1  0.50000000  0.22311264  0.08397693  1
  Tl  Tl6  1  0.00000000  0.72311264  0.41602307  1
  Tl  Tl7  1  0.00000000  0.27688736  0.41602307  1
  Tl  Tl8  1  0.27688736  0.00000000  0.58397693  1
  Tl  Tl9  1  0.72311264  0.00000000  0.58397693  1
  In  In10  1  0.50000000  0.78522609  0.79819873  1
  In  In11  1  0.50000000  0.21477391  0.79819873  1
  In  In12  1  0.78522609  0.50000000  0.20180127  1
  In  In13  1  0.21477391  0.50000000  0.20180127  1
  In  In14  1  0.28522609  0.00000000  0.29819873  1
  In  In15  1  0.71477391  0.00000000  0.29819873  1
  In  In16  1  0.00000000  0.28522609  0.70180127  1
  In  In17  1  0.00000000  0.71477391  0.70180127  1
