# generated using pymatgen
data_NaAl2ZnAu4
_symmetry_space_group_name_H-M   'P 1'
_cell_length_a   4.55708773
_cell_length_b   4.55708773
_cell_length_c   8.09260413
_cell_angle_alpha   73.64673954
_cell_angle_beta   73.64673954
_cell_angle_gamma   59.99999994
_symmetry_Int_Tables_number   1
_chemical_formula_structural   NaAl2ZnAu4
_chemical_formula_sum   'Na1 Al2 Zn1 Au4'
_cell_volume   137.63700295
_cell_formula_units_Z   1
loop_
 _symmetry_equiv_pos_site_id
 _symmetry_equiv_pos_as_xyz
  1  'x, y, z'
loop_
 _atom_site_type_symbol
 _atom_site_label
 _atom_site_symmetry_multiplicity
 _atom_site_fract_x
 _atom_site_fract_y
 _atom_site_fract_z
 _atom_site_occupancy
  Na  Na0  1  0.00000000  0.00000000  0.00000000  1
  Al  Al1  1  0.74729695  0.74729695  0.75810914  1
  Al  Al2  1  0.25270305  0.25270305  0.24189086  1
  Zn  Zn3  1  0.50000000  0.50000000  0.50000000  1
  Au  Au4  1  0.38432387  0.38432387  0.84702840  1
  Au  Au5  1  0.87076292  0.87076292  0.38771125  1
  Au  Au6  1  0.12923708  0.12923708  0.61228875  1
  Au  Au7  1  0.61567613  0.61567613  0.15297160  1
