# generated using pymatgen
data_Sm7HoTm12
_symmetry_space_group_name_H-M   'P 1'
_cell_length_a   9.65847654
_cell_length_b   9.65847696
_cell_length_c   9.65847697
_cell_angle_alpha   109.47121915
_cell_angle_beta   109.47121999
_cell_angle_gamma   109.47122036
_symmetry_Int_Tables_number   1
_chemical_formula_structural   Sm7HoTm12
_chemical_formula_sum   'Sm7 Ho1 Tm12'
_cell_volume   693.59195722
_cell_formula_units_Z   1
loop_
 _symmetry_equiv_pos_site_id
 _symmetry_equiv_pos_as_xyz
  1  'x, y, z'
loop_
 _atom_site_type_symbol
 _atom_site_label
 _atom_site_symmetry_multiplicity
 _atom_site_fract_x
 _atom_site_fract_y
 _atom_site_fract_z
 _atom_site_occupancy
  Sm  Sm0  1  0.50000000  0.50000000  -0.00000000  1
  Sm  Sm1  1  0.00000000  0.50000000  0.50000000  1
  Sm  Sm2  1  0.50000000  0.00000000  0.50000000  1
  Sm  Sm3  1  0.50000000  0.50000000  0.50000000  1
  Sm  Sm4  1  0.00000000  0.00000000  0.50000000  1
  Sm  Sm5  1  0.50000000  0.00000000  -0.00000000  1
  Sm  Sm6  1  0.00000000  0.50000000  -0.00000000  1
  Ho  Ho7  1  0.00000000  0.00000000  0.00000000  1
  Tm  Tm8  1  0.50615811  0.75279705  0.75336106  1
  Tm  Tm9  1  0.99943699  0.75279705  0.24663894  1
  Tm  Tm10  1  0.49384189  0.24720295  0.24663894  1
  Tm  Tm11  1  0.00056301  0.24720295  0.75336106  1
  Tm  Tm12  1  0.75336106  0.00056301  0.24720295  1
  Tm  Tm13  1  0.75336106  0.50615811  0.75279705  1
  Tm  Tm14  1  0.24663894  0.99943699  0.75279705  1
  Tm  Tm15  1  0.24663894  0.49384189  0.24720295  1
  Tm  Tm16  1  0.75279705  0.75336106  0.50615811  1
  Tm  Tm17  1  0.24720295  0.24663894  0.49384189  1
  Tm  Tm18  1  0.75279705  0.24663894  0.99943698  1
  Tm  Tm19  1  0.24720295  0.75336106  0.00056302  1
