# generated using pymatgen
data_Tl(GaCl4)2
_symmetry_space_group_name_H-M   'P 1'
_cell_length_a   6.46396309
_cell_length_b   7.98831956
_cell_length_c   7.98831956
_cell_angle_alpha   70.68744485
_cell_angle_beta   82.39856616
_cell_angle_gamma   82.39856613
_symmetry_Int_Tables_number   1
_chemical_formula_structural   Tl(GaCl4)2
_chemical_formula_sum   'Tl1 Ga2 Cl8'
_cell_volume   384.12237784
_cell_formula_units_Z   1
loop_
 _symmetry_equiv_pos_site_id
 _symmetry_equiv_pos_as_xyz
  1  'x, y, z'
loop_
 _atom_site_type_symbol
 _atom_site_label
 _atom_site_symmetry_multiplicity
 _atom_site_fract_x
 _atom_site_fract_y
 _atom_site_fract_z
 _atom_site_occupancy
  Tl  Tl0  1  0.00000000  0.00000000  0.00000000  1
  Ga  Ga1  1  0.34098070  0.20212838  0.20212838  1
  Ga  Ga2  1  0.65901930  0.79787162  0.79787162  1
  Cl  Cl3  1  0.75625411  0.07495829  0.69664366  1
  Cl  Cl4  1  0.24374589  0.30335634  0.92504171  1
  Cl  Cl5  1  0.68967550  0.18983089  0.18983089  1
  Cl  Cl6  1  0.31032450  0.81016911  0.81016911  1
  Cl  Cl7  1  0.75625411  0.69664366  0.07495829  1
  Cl  Cl8  1  0.24374589  0.92504171  0.30335634  1
  Cl  Cl9  1  0.20775789  0.36412333  0.36412333  1
  Cl  Cl10  1  0.79224211  0.63587667  0.63587667  1
