# generated using pymatgen
data_PrGd2Ho
_symmetry_space_group_name_H-M   'P 1'
_cell_length_a   3.60143326
_cell_length_b   3.60143326
_cell_length_c   11.94593851
_cell_angle_alpha   81.33025555
_cell_angle_beta   81.33025554
_cell_angle_gamma   59.99999997
_symmetry_Int_Tables_number   1
_chemical_formula_structural   PrGd2Ho
_chemical_formula_sum   'Pr1 Gd2 Ho1'
_cell_volume   132.13600887
_cell_formula_units_Z   1
loop_
 _symmetry_equiv_pos_site_id
 _symmetry_equiv_pos_as_xyz
  1  'x, y, z'
loop_
 _atom_site_type_symbol
 _atom_site_label
 _atom_site_symmetry_multiplicity
 _atom_site_fract_x
 _atom_site_fract_y
 _atom_site_fract_z
 _atom_site_occupancy
  Pr  Pr0  1  0.50000000  0.50000000  0.50000000  1
  Gd  Gd1  1  0.74823012  0.74823012  0.75530864  1
  Gd  Gd2  1  0.25176988  0.25176988  0.24469136  1
  Ho  Ho3  1  0.00000000  0.00000000  0.00000000  1
