# generated using pymatgen
data_Na2Er(SiAu4)3
_symmetry_space_group_name_H-M   'P 1'
_cell_length_a   7.56599466
_cell_length_b   7.56599466
_cell_length_c   7.56599467
_cell_angle_alpha   73.48877770
_cell_angle_beta   73.48877766
_cell_angle_gamma   73.48877763
_symmetry_Int_Tables_number   1
_chemical_formula_structural   Na2Er(SiAu4)3
_chemical_formula_sum   'Na2 Er1 Si3 Au12'
_cell_volume   388.25509844
_cell_formula_units_Z   1
loop_
 _symmetry_equiv_pos_site_id
 _symmetry_equiv_pos_as_xyz
  1  'x, y, z'
loop_
 _atom_site_type_symbol
 _atom_site_label
 _atom_site_symmetry_multiplicity
 _atom_site_fract_x
 _atom_site_fract_y
 _atom_site_fract_z
 _atom_site_occupancy
  Na  Na0  1  0.58477511  0.58477511  0.58477511  1
  Na  Na1  1  0.41522489  0.41522489  0.41522489  1
  Er  Er2  1  0.00000000  0.00000000  0.00000000  1
  Si  Si3  1  0.50000000  -0.00000000  0.00000000  1
  Si  Si4  1  -0.00000000  0.50000000  0.00000000  1
  Si  Si5  1  -0.00000000  0.00000000  0.50000000  1
  Au  Au6  1  0.30349211  0.30349211  0.85759153  1
  Au  Au7  1  0.83438188  0.83438188  0.38864804  1
  Au  Au8  1  0.38864804  0.83438188  0.83438188  1
  Au  Au9  1  0.85759153  0.30349211  0.30349211  1
  Au  Au10  1  0.83438188  0.38864804  0.83438188  1
  Au  Au11  1  0.30349211  0.85759153  0.30349211  1
  Au  Au12  1  0.69650789  0.69650789  0.14240847  1
  Au  Au13  1  0.16561812  0.16561812  0.61135196  1
  Au  Au14  1  0.61135196  0.16561812  0.16561812  1
  Au  Au15  1  0.14240847  0.69650789  0.69650789  1
  Au  Au16  1  0.16561812  0.61135196  0.16561812  1
  Au  Au17  1  0.69650789  0.14240847  0.69650789  1
