# generated using pymatgen
data_Na2HfBiS4
_symmetry_space_group_name_H-M   'P 1'
_cell_length_a   3.76536527
_cell_length_b   7.06372013
_cell_length_c   7.06927416
_cell_angle_alpha   107.01809437
_cell_angle_beta   90.00000000
_cell_angle_gamma   90.00000000
_symmetry_Int_Tables_number   1
_chemical_formula_structural   Na2HfBiS4
_chemical_formula_sum   'Na2 Hf1 Bi1 S4'
_cell_volume   179.79175890
_cell_formula_units_Z   1
loop_
 _symmetry_equiv_pos_site_id
 _symmetry_equiv_pos_as_xyz
  1  'x, y, z'
loop_
 _atom_site_type_symbol
 _atom_site_label
 _atom_site_symmetry_multiplicity
 _atom_site_fract_x
 _atom_site_fract_y
 _atom_site_fract_z
 _atom_site_occupancy
  Na  Na0  1  0.50000000  0.00000000  0.50000000  1
  Na  Na1  1  0.00000000  0.50000000  0.50000000  1
  Hf  Hf2  1  0.50000000  0.50000000  0.00000000  1
  Bi  Bi3  1  0.00000000  0.00000000  0.00000000  1
  S  S4  1  0.50000000  0.27897075  0.23187885  1
  S  S5  1  0.50000000  0.72102925  0.76812115  1
  S  S6  1  0.00000000  0.27857170  0.78413771  1
  S  S7  1  0.00000000  0.72142830  0.21586229  1
