# generated using pymatgen
data_NdUNi17
_symmetry_space_group_name_H-M   'P 1'
_cell_length_a   6.25281614
_cell_length_b   6.25281555
_cell_length_c   6.25281634
_cell_angle_alpha   82.97454523
_cell_angle_beta   82.97454634
_cell_angle_gamma   82.97455132
_symmetry_Int_Tables_number   1
_chemical_formula_structural   NdUNi17
_chemical_formula_sum   'Nd1 U1 Ni17'
_cell_volume   239.37922203
_cell_formula_units_Z   1
loop_
 _symmetry_equiv_pos_site_id
 _symmetry_equiv_pos_as_xyz
  1  'x, y, z'
loop_
 _atom_site_type_symbol
 _atom_site_label
 _atom_site_symmetry_multiplicity
 _atom_site_fract_x
 _atom_site_fract_y
 _atom_site_fract_z
 _atom_site_occupancy
  Nd  Nd0  1  0.66091961  0.66091961  0.66091961  1
  U  U1  1  0.33378704  0.33378704  0.33378704  1
  Ni  Ni2  1  0.29473041  0.00386808  0.70184815  1
  Ni  Ni3  1  0.70184815  0.29473041  0.00386808  1
  Ni  Ni4  1  0.00386808  0.70184815  0.29473041  1
  Ni  Ni5  1  0.29473041  0.70184815  0.00386808  1
  Ni  Ni6  1  0.00386808  0.29473041  0.70184815  1
  Ni  Ni7  1  0.70184815  0.00386808  0.29473041  1
  Ni  Ni8  1  0.34427145  0.85068135  0.34427145  1
  Ni  Ni9  1  0.34427145  0.34427145  0.85068135  1
  Ni  Ni10  1  0.85068135  0.34427145  0.34427145  1
  Ni  Ni11  1  0.64948783  0.15958112  0.64948783  1
  Ni  Ni12  1  0.64948783  0.64948783  0.15958112  1
  Ni  Ni13  1  0.15958112  0.64948783  0.64948783  1
  Ni  Ni14  1  0.99879587  0.50107696  0.99879587  1
  Ni  Ni15  1  0.99879587  0.99879587  0.50107696  1
  Ni  Ni16  1  0.50107696  0.99879587  0.99879587  1
  Ni  Ni17  1  0.90432950  0.90432950  0.90432950  1
  Ni  Ni18  1  0.10361986  0.10361986  0.10361986  1
