# generated using pymatgen
data_NpBi3
_symmetry_space_group_name_H-M   'P 1'
_cell_length_a   4.43962350
_cell_length_b   4.69290458
_cell_length_c   19.64042116
_cell_angle_alpha   90.00000000
_cell_angle_beta   90.00000000
_cell_angle_gamma   89.99999939
_symmetry_Int_Tables_number   1
_chemical_formula_structural   NpBi3
_chemical_formula_sum   'Np1 Bi3'
_cell_volume   409.20286128
_cell_formula_units_Z   1
loop_
 _symmetry_equiv_pos_site_id
 _symmetry_equiv_pos_as_xyz
  1  'x, y, z'
loop_
 _atom_site_type_symbol
 _atom_site_label
 _atom_site_symmetry_multiplicity
 _atom_site_fract_x
 _atom_site_fract_y
 _atom_site_fract_z
 _atom_site_occupancy
  Np  Np0  1  0.99999999  0.50000000  0.50000001  1
  Bi  Bi1  1  0.50000001  0.50000000  0.61813445  1
  Bi  Bi2  1  0.49999998  0.50000000  0.38186553  1
  Bi  Bi3  1  0.50000002  0.00000000  0.50000001  1
