# generated using pymatgen
data_Pm(PrNd)4
_symmetry_space_group_name_H-M   'P 1'
_cell_length_a   5.22927338
_cell_length_b   8.25921163
_cell_length_c   8.25921163
_cell_angle_alpha   84.24827890
_cell_angle_beta   71.54424859
_cell_angle_gamma   71.54424865
_symmetry_Int_Tables_number   1
_chemical_formula_structural   Pm(PrNd)4
_chemical_formula_sum   'Pm1 Pr4 Nd4'
_cell_volume   320.96365796
_cell_formula_units_Z   1
loop_
 _symmetry_equiv_pos_site_id
 _symmetry_equiv_pos_as_xyz
  1  'x, y, z'
loop_
 _atom_site_type_symbol
 _atom_site_label
 _atom_site_symmetry_multiplicity
 _atom_site_fract_x
 _atom_site_fract_y
 _atom_site_fract_z
 _atom_site_occupancy
  Pm  Pm0  1  0.00000000  0.00000000  0.00000000  1
  Pr  Pr1  1  0.66761134  0.33242317  0.33235314  1
  Pr  Pr2  1  0.33238866  0.66757683  0.66764686  1
  Pr  Pr3  1  0.99996549  0.66764686  0.33242317  1
  Pr  Pr4  1  0.00003451  0.33235314  0.66757683  1
  Nd  Nd5  1  0.66627316  0.66753783  0.99991584  1
  Nd  Nd6  1  0.33372684  0.33246217  0.00008416  1
  Nd  Nd7  1  0.66618900  0.00008416  0.66753783  1
  Nd  Nd8  1  0.33381100  0.99991584  0.33246217  1
