# generated using pymatgen
data_TiFeSi2
_symmetry_space_group_name_H-M   'P 1'
_cell_length_a   4.10343550
_cell_length_b   2.88841738
_cell_length_c   8.86961598
_cell_angle_alpha   99.43314705
_cell_angle_beta   90.00000000
_cell_angle_gamma   90.00000000
_symmetry_Int_Tables_number   1
_chemical_formula_structural   TiFeSi2
_chemical_formula_sum   'Ti2 Fe2 Si4'
_cell_volume   103.70496886
_cell_formula_units_Z   2
loop_
 _symmetry_equiv_pos_site_id
 _symmetry_equiv_pos_as_xyz
  1  'x, y, z'
loop_
 _atom_site_type_symbol
 _atom_site_label
 _atom_site_symmetry_multiplicity
 _atom_site_fract_x
 _atom_site_fract_y
 _atom_site_fract_z
 _atom_site_occupancy
  Si  Si0  1  0.25000000  0.26821512  0.53612736  1
  Si  Si1  1  0.75000000  0.73183757  0.46388297  1
  Si  Si2  1  0.75000000  0.46315713  0.92732414  1
  Si  Si3  1  0.25000000  0.53687837  0.07267303  1
  Fe  Fe4  1  0.75000000  0.33658856  0.67229496  1
  Fe  Fe5  1  0.25000000  0.66345410  0.32769408  1
  Ti  Ti6  1  0.25000000  0.90719481  0.81553420  1
  Ti  Ti7  1  0.75000000  0.09284533  0.18446825  1
