# generated using pymatgen
data_Tb4Si2C
_symmetry_space_group_name_H-M   'P 1'
_cell_length_a   4.70506499
_cell_length_b   4.70506499
_cell_length_c   8.28837317
_cell_angle_alpha   106.48923866
_cell_angle_beta   106.48923866
_cell_angle_gamma   90.00000000
_symmetry_Int_Tables_number   1
_chemical_formula_structural   Tb4Si2C
_chemical_formula_sum   'Tb4 Si2 C1'
_cell_volume   168.05413421
_cell_formula_units_Z   1
loop_
 _symmetry_equiv_pos_site_id
 _symmetry_equiv_pos_as_xyz
  1  'x, y, z'
loop_
 _atom_site_type_symbol
 _atom_site_label
 _atom_site_symmetry_multiplicity
 _atom_site_fract_x
 _atom_site_fract_y
 _atom_site_fract_z
 _atom_site_occupancy
  Si  Si0  1  0.63562291  0.63562291  0.27124582  1
  Si  Si1  1  0.36437709  0.36437709  0.72875418  1
  Tb  Tb2  1  0.83079759  0.83079759  0.66159517  1
  Tb  Tb3  1  0.16920241  0.16920241  0.33840483  1
  Tb  Tb4  1  0.00000000  0.50000000  0.00000000  1
  Tb  Tb5  1  0.50000000  0.00000000  0.00000000  1
  C  C6  1  0.00000000  0.00000000  0.00000000  1
