# generated using pymatgen
data_CrP
_symmetry_space_group_name_H-M   'P 1'
_cell_length_a   5.50644312
_cell_length_b   4.34741970
_cell_length_c   21.31165758
_cell_angle_alpha   90.00000000
_cell_angle_beta   90.00000000
_cell_angle_gamma   51.47104027
_symmetry_Int_Tables_number   1
_chemical_formula_structural   CrP
_chemical_formula_sum   'Cr6 P6'
_cell_volume   399.10726084
_cell_formula_units_Z   6
loop_
 _symmetry_equiv_pos_site_id
 _symmetry_equiv_pos_as_xyz
  1  'x, y, z'
loop_
 _atom_site_type_symbol
 _atom_site_label
 _atom_site_symmetry_multiplicity
 _atom_site_fract_x
 _atom_site_fract_y
 _atom_site_fract_z
 _atom_site_occupancy
  Cr  Cr0  1  0.16653584  0.93553719  0.59851966  1
  Cr  Cr1  1  0.28820477  0.08558049  0.39206428  1
  Cr  Cr2  1  0.86215092  0.93725421  0.40273532  1
  Cr  Cr3  1  0.76185239  0.75505522  0.61608948  1
  Cr  Cr4  1  0.65219055  0.34447324  0.53301641  1
  Cr  Cr5  1  0.07810876  0.49955001  0.51541374  1
  P  P6  1  0.28416000  0.34428695  0.61520791  1
  P  P7  1  0.37773763  0.50493830  0.35438557  1
  P  P8  1  0.78166042  0.50447629  0.35391240  1
  P  P9  1  0.67557112  0.33476256  0.65007227  1
  P  P10  1  0.57956056  0.92168485  0.48418982  1
  P  P11  1  0.15707858  0.92813623  0.48439315  1
