# generated using pymatgen
data_Zn2AgPt
_symmetry_space_group_name_H-M   'P 1'
_cell_length_a   2.85131703
_cell_length_b   2.85132772
_cell_length_c   7.60755416
_cell_angle_alpha   90.00000000
_cell_angle_beta   90.00000000
_cell_angle_gamma   89.99851692
_symmetry_Int_Tables_number   1
_chemical_formula_structural   Zn2AgPt
_chemical_formula_sum   'Zn2 Ag1 Pt1'
_cell_volume   61.84971413
_cell_formula_units_Z   1
loop_
 _symmetry_equiv_pos_site_id
 _symmetry_equiv_pos_as_xyz
  1  'x, y, z'
loop_
 _atom_site_type_symbol
 _atom_site_label
 _atom_site_symmetry_multiplicity
 _atom_site_fract_x
 _atom_site_fract_y
 _atom_site_fract_z
 _atom_site_occupancy
  Zn  Zn0  1  0.00000000  0.00000000  0.98323069  1
  Zn  Zn1  1  0.00000000  0.00000000  0.51676931  1
  Ag  Ag2  1  0.50000000  0.50000000  0.25000000  1
  Pt  Pt3  1  0.50000000  0.50000000  0.75000000  1
