# generated using pymatgen
data_CeGeIr4
_symmetry_space_group_name_H-M   'P 1'
_cell_length_a   4.01942756
_cell_length_b   6.79105376
_cell_length_c   7.52110299
_cell_angle_alpha   90.00000000
_cell_angle_beta   90.00000000
_cell_angle_gamma   90.00000000
_symmetry_Int_Tables_number   1
_chemical_formula_structural   CeGeIr4
_chemical_formula_sum   'Ce2 Ge2 Ir8'
_cell_volume   205.29714518
_cell_formula_units_Z   2
loop_
 _symmetry_equiv_pos_site_id
 _symmetry_equiv_pos_as_xyz
  1  'x, y, z'
loop_
 _atom_site_type_symbol
 _atom_site_label
 _atom_site_symmetry_multiplicity
 _atom_site_fract_x
 _atom_site_fract_y
 _atom_site_fract_z
 _atom_site_occupancy
  Ce  Ce0  1  0.00000000  0.65079495  0.75000000  1
  Ce  Ce1  1  0.00000000  0.34920505  0.25000000  1
  Ge  Ge2  1  0.00000000  0.23250818  0.75000000  1
  Ge  Ge3  1  0.00000000  0.76749182  0.25000000  1
  Ir  Ir4  1  0.00000000  0.00000000  0.50000000  1
  Ir  Ir5  1  0.00000000  0.00000000  0.00000000  1
  Ir  Ir6  1  0.50000000  0.95299805  0.75000000  1
  Ir  Ir7  1  0.50000000  0.04700195  0.25000000  1
  Ir  Ir8  1  0.50000000  0.69498510  0.03822713  1
  Ir  Ir9  1  0.50000000  0.30501490  0.96177287  1
  Ir  Ir10  1  0.50000000  0.69498510  0.46177287  1
  Ir  Ir11  1  0.50000000  0.30501490  0.53822713  1
