# generated using pymatgen
data_NbCu
_symmetry_space_group_name_H-M   'P 1'
_cell_length_a   9.91329022
_cell_length_b   9.91329022
_cell_length_c   2.60099783
_cell_angle_alpha   90.00000000
_cell_angle_beta   90.00000000
_cell_angle_gamma   90.00000000
_symmetry_Int_Tables_number   1
_chemical_formula_structural   NbCu
_chemical_formula_sum   'Nb8 Cu8'
_cell_volume   255.60869983
_cell_formula_units_Z   8
loop_
 _symmetry_equiv_pos_site_id
 _symmetry_equiv_pos_as_xyz
  1  'x, y, z'
loop_
 _atom_site_type_symbol
 _atom_site_label
 _atom_site_symmetry_multiplicity
 _atom_site_fract_x
 _atom_site_fract_y
 _atom_site_fract_z
 _atom_site_occupancy
  Nb  Nb0  1  0.33161414  0.09400075  0.00000000  1
  Nb  Nb1  1  0.66838586  0.90599925  0.00000000  1
  Nb  Nb2  1  0.90599925  0.33161414  0.00000000  1
  Nb  Nb3  1  0.09400075  0.66838586  0.00000000  1
  Nb  Nb4  1  0.83161414  0.59400075  0.50000000  1
  Nb  Nb5  1  0.16838586  0.40599925  0.50000000  1
  Nb  Nb6  1  0.40599925  0.83161414  0.50000000  1
  Nb  Nb7  1  0.59400075  0.16838586  0.50000000  1
  Cu  Cu8  1  0.58487502  0.65085383  0.00000000  1
  Cu  Cu9  1  0.41512498  0.34914617  0.00000000  1
  Cu  Cu10  1  0.34914617  0.58487502  0.00000000  1
  Cu  Cu11  1  0.65085383  0.41512498  0.00000000  1
  Cu  Cu12  1  0.08487502  0.15085383  0.50000000  1
  Cu  Cu13  1  0.91512498  0.84914617  0.50000000  1
  Cu  Cu14  1  0.84914617  0.08487502  0.50000000  1
  Cu  Cu15  1  0.15085383  0.91512498  0.50000000  1
