# generated using pymatgen
data_CaReB3
_symmetry_space_group_name_H-M   'P 1'
_cell_length_a   4.12039157
_cell_length_b   4.12021325
_cell_length_c   4.12017113
_cell_angle_alpha   102.27626114
_cell_angle_beta   102.27819619
_cell_angle_gamma   77.72152511
_symmetry_Int_Tables_number   1
_chemical_formula_structural   CaReB3
_chemical_formula_sum   'Ca1 Re1 B3'
_cell_volume   65.74982865
_cell_formula_units_Z   1
loop_
 _symmetry_equiv_pos_site_id
 _symmetry_equiv_pos_as_xyz
  1  'x, y, z'
loop_
 _atom_site_type_symbol
 _atom_site_label
 _atom_site_symmetry_multiplicity
 _atom_site_fract_x
 _atom_site_fract_y
 _atom_site_fract_z
 _atom_site_occupancy
  Ca  Ca0  1  0.98336122  0.98134648  0.03067979  1
  Re  Re1  1  0.44845349  0.44647026  0.56552073  1
  B  B2  1  0.58012712  0.91593054  0.43387706  1
  B  B3  1  0.58013030  0.57813611  0.09604796  1
  B  B4  1  0.91792587  0.57811661  0.43387346  1
