# generated using pymatgen
data_TiV2Mo5
_symmetry_space_group_name_H-M   'P 1'
_cell_length_a   5.40307693
_cell_length_b   5.40307451
_cell_length_c   5.40305492
_cell_angle_alpha   109.54114129
_cell_angle_beta   109.54119202
_cell_angle_gamma   109.33157363
_symmetry_Int_Tables_number   1
_chemical_formula_structural   TiV2Mo5
_chemical_formula_sum   'Ti1 V2 Mo5'
_cell_volume   121.42184658
_cell_formula_units_Z   1
loop_
 _symmetry_equiv_pos_site_id
 _symmetry_equiv_pos_as_xyz
  1  'x, y, z'
loop_
 _atom_site_type_symbol
 _atom_site_label
 _atom_site_symmetry_multiplicity
 _atom_site_fract_x
 _atom_site_fract_y
 _atom_site_fract_z
 _atom_site_occupancy
  Ti  Ti0  1  0.77791056  0.77789161  0.99999700  1
  V  V1  1  0.27783684  0.77781753  0.49998811  1
  V  V2  1  0.77788173  0.27786643  0.50001089  1
  Mo  Mo3  1  0.27787302  0.27789677  0.50001419  1
  Mo  Mo4  1  0.27789548  0.77787139  0.00000900  1
  Mo  Mo5  1  0.77787509  0.27787752  0.99999100  1
  Mo  Mo6  1  0.77785483  0.77789758  0.49998581  1
  Mo  Mo7  1  0.27787145  0.27787717  0.00000400  1
