# generated using pymatgen
data_Cs4SrMn3F12
_symmetry_space_group_name_H-M   'P 1'
_cell_length_a   7.79289423
_cell_length_b   7.79289423
_cell_length_c   7.79289423
_cell_angle_alpha   109.47122064
_cell_angle_beta   109.47122064
_cell_angle_gamma   109.47122063
_symmetry_Int_Tables_number   1
_chemical_formula_structural   Cs4SrMn3F12
_chemical_formula_sum   'Cs4 Sr1 Mn3 F12'
_cell_volume   364.31282009
_cell_formula_units_Z   1
loop_
 _symmetry_equiv_pos_site_id
 _symmetry_equiv_pos_as_xyz
  1  'x, y, z'
loop_
 _atom_site_type_symbol
 _atom_site_label
 _atom_site_symmetry_multiplicity
 _atom_site_fract_x
 _atom_site_fract_y
 _atom_site_fract_z
 _atom_site_occupancy
  Cs  Cs0  1  0.50000000  0.50000000  0.50000000  1
  Cs  Cs1  1  0.00000000  0.00000000  0.50000000  1
  Cs  Cs2  1  0.50000000  0.00000000  0.00000000  1
  Cs  Cs3  1  0.00000000  0.50000000  0.00000000  1
  Sr  Sr4  1  0.00000000  0.00000000  0.00000000  1
  Mn  Mn5  1  0.50000000  0.00000000  0.50000000  1
  Mn  Mn6  1  0.50000000  0.50000000  0.00000000  1
  Mn  Mn7  1  0.00000000  0.50000000  0.50000000  1
  F  F8  1  0.25000000  0.50000000  0.75000000  1
  F  F9  1  0.73368633  1.00000000  0.73368633  1
  F  F10  1  0.26631367  -0.00000000  0.26631367  1
  F  F11  1  0.75000000  0.50000000  0.25000000  1
  F  F12  1  0.73368633  0.73368633  1.00000000  1
  F  F13  1  0.26631367  0.26631367  0.00000000  1
  F  F14  1  0.75000000  0.25000000  0.50000000  1
  F  F15  1  0.25000000  0.75000000  0.50000000  1
  F  F16  1  0.50000000  0.25000000  0.75000000  1
  F  F17  1  1.00000000  0.73368633  0.73368633  1
  F  F18  1  0.50000000  0.75000000  0.25000000  1
  F  F19  1  -0.00000000  0.26631367  0.26631367  1
