# generated using pymatgen
data_KBr
_symmetry_space_group_name_H-M   'P 1'
_cell_length_a   18.04497538
_cell_length_b   6.43761399
_cell_length_c   16.74169151
_cell_angle_alpha   90.00000000
_cell_angle_beta   90.00000000
_cell_angle_gamma   90.00257087
_symmetry_Int_Tables_number   1
_chemical_formula_structural   KBr
_chemical_formula_sum   'K6 Br6'
_cell_volume   1944.82514429
_cell_formula_units_Z   6
loop_
 _symmetry_equiv_pos_site_id
 _symmetry_equiv_pos_as_xyz
  1  'x, y, z'
loop_
 _atom_site_type_symbol
 _atom_site_label
 _atom_site_symmetry_multiplicity
 _atom_site_fract_x
 _atom_site_fract_y
 _atom_site_fract_z
 _atom_site_occupancy
  K  K0  1  0.66243543  0.86896360  0.47280972  1
  K  K1  1  0.33898345  0.86868512  0.46958099  1
  K  K2  1  0.16044036  0.36912392  0.47814190  1
  K  K3  1  0.84095794  0.36947277  0.48112600  1
  K  K4  1  0.00140244  0.86977953  0.55600606  1
  K  K5  1  0.50012960  0.36883241  0.54564842  1
  Br  Br6  1  0.33877810  0.36867286  0.46441777  1
  Br  Br7  1  0.66261520  0.36897274  0.46707887  1
  Br  Br8  1  0.84115883  0.86948374  0.47260829  1
  Br  Br9  1  0.16011611  0.86910458  0.46901900  1
  Br  Br10  1  0.00145627  0.36977657  0.56845095  1
  Br  Br11  1  0.50001962  0.86880216  0.55511203  1
