# generated using pymatgen
data_H5Se6
_symmetry_space_group_name_H-M   'P 1'
_cell_length_a   7.98326463
_cell_length_b   11.29284898
_cell_length_c   15.00000000
_cell_angle_alpha   90.00000000
_cell_angle_beta   90.00000000
_cell_angle_gamma   124.40268773
_symmetry_Int_Tables_number   1
_chemical_formula_structural   H5Se6
_chemical_formula_sum   'H5 Se6'
_cell_volume   1115.77094107
_cell_formula_units_Z   1
loop_
 _symmetry_equiv_pos_site_id
 _symmetry_equiv_pos_as_xyz
  1  'x, y, z'
loop_
 _atom_site_type_symbol
 _atom_site_label
 _atom_site_symmetry_multiplicity
 _atom_site_fract_x
 _atom_site_fract_y
 _atom_site_fract_z
 _atom_site_occupancy
  H  H0  1  0.16075696  0.69732793  0.50000000  1
  H  H1  1  0.85239008  0.70993660  0.50000000  1
  H  H2  1  0.56943091  0.29664207  0.50000000  1
  H  H3  1  0.42256538  0.69352340  0.50000000  1
  H  H4  1  0.15372795  0.32049460  0.50000000  1
  Se  Se5  1  0.78033234  0.43096441  0.50000000  1
  Se  Se6  1  0.23153452  0.04998536  0.50000000  1
  Se  Se7  1  0.92848737  0.22314848  0.50000000  1
  Se  Se8  1  0.38278339  0.80750305  0.50000000  1
  Se  Se9  1  0.92093820  0.00503422  0.50000000  1
  Se  Se10  1  0.64467959  0.57497324  0.50000000  1
