# generated using pymatgen
data_Sm2AlGaAu6
_symmetry_space_group_name_H-M   'P 1'
_cell_length_a   9.12114296
_cell_length_b   5.53922351
_cell_length_c   6.68594843
_cell_angle_alpha   67.91117590
_cell_angle_beta   49.62919193
_cell_angle_gamma   93.42809463
_symmetry_Int_Tables_number   1
_chemical_formula_structural   Sm2AlGaAu6
_chemical_formula_sum   'Sm2 Al1 Ga1 Au6'
_cell_volume   215.32795567
_cell_formula_units_Z   1
loop_
 _symmetry_equiv_pos_site_id
 _symmetry_equiv_pos_as_xyz
  1  'x, y, z'
loop_
 _atom_site_type_symbol
 _atom_site_label
 _atom_site_symmetry_multiplicity
 _atom_site_fract_x
 _atom_site_fract_y
 _atom_site_fract_z
 _atom_site_occupancy
  Sm  Sm0  1  0.23655942  0.74089987  0.51554677  1
  Sm  Sm1  1  0.76344058  0.25910013  0.48445323  1
  Al  Al2  1  0.50000000  0.50000000  0.00000000  1
  Ga  Ga3  1  0.00000000  0.00000000  0.00000000  1
  Au  Au4  1  0.23431569  0.72813940  0.05054510  1
  Au  Au5  1  0.81635103  0.81839269  0.85887084  1
  Au  Au6  1  0.40553343  0.27397037  0.49872797  1
  Au  Au7  1  0.76568431  0.27186060  0.94945490  1
  Au  Au8  1  0.18364897  0.18160731  0.14112916  1
  Au  Au9  1  0.59446657  0.72602963  0.50127203  1
