# generated using pymatgen
data_Sm6Ga2Hg
_symmetry_space_group_name_H-M   'P 1'
_cell_length_a   8.79418790
_cell_length_b   8.79418660
_cell_length_c   8.79418767
_cell_angle_alpha   105.74218640
_cell_angle_beta   111.41637007
_cell_angle_gamma   111.31824369
_symmetry_Int_Tables_number   1
_chemical_formula_structural   Sm6Ga2Hg
_chemical_formula_sum   'Sm12 Ga4 Hg2'
_cell_volume   521.90888501
_cell_formula_units_Z   2
loop_
 _symmetry_equiv_pos_site_id
 _symmetry_equiv_pos_as_xyz
  1  'x, y, z'
loop_
 _atom_site_type_symbol
 _atom_site_label
 _atom_site_symmetry_multiplicity
 _atom_site_fract_x
 _atom_site_fract_y
 _atom_site_fract_z
 _atom_site_occupancy
  Sm  Sm0  1  0.54645803  0.72521785  0.82124018  1
  Sm  Sm1  1  0.45354197  0.27478215  0.17875982  1
  Sm  Sm2  1  0.09602233  0.27478215  0.82124018  1
  Sm  Sm3  1  0.90397767  0.72521785  0.17875982  1
  Sm  Sm4  1  0.79975141  0.75411446  0.55386587  1
  Sm  Sm5  1  0.20024859  0.24588554  0.44613413  1
  Sm  Sm6  1  0.20024859  0.75411446  0.95436305  1
  Sm  Sm7  1  0.79975141  0.24588554  0.04563695  1
  Sm  Sm8  1  0.70690348  0.38276774  0.67586426  1
  Sm  Sm9  1  0.29309652  0.61723226  0.32413574  1
  Sm  Sm10  1  0.29309652  0.96895978  0.67586426  1
  Sm  Sm11  1  0.70690348  0.03103922  0.32413574  1
  Ga  Ga12  1  0.50000000  0.37835708  0.87835708  1
  Ga  Ga13  1  0.50000000  0.62164192  0.12164292  1
  Ga  Ga14  1  0.64283734  0.00000000  0.64283834  1
  Ga  Ga15  1  0.35716266  1.00000000  0.35716266  1
  Hg  Hg16  1  0.00000000  0.50000000  0.50000000  1
  Hg  Hg17  1  0.00000000  0.00000000  0.00000000  1
