# generated using pymatgen
data_DyErTlGa
_symmetry_space_group_name_H-M   'P 1'
_cell_length_a   3.56012454
_cell_length_b   3.56012454
_cell_length_c   7.82453900
_cell_angle_alpha   90.00000000
_cell_angle_beta   90.00000000
_cell_angle_gamma   90.00000000
_symmetry_Int_Tables_number   1
_chemical_formula_structural   DyErTlGa
_chemical_formula_sum   'Dy1 Er1 Tl1 Ga1'
_cell_volume   99.17201580
_cell_formula_units_Z   1
loop_
 _symmetry_equiv_pos_site_id
 _symmetry_equiv_pos_as_xyz
  1  'x, y, z'
loop_
 _atom_site_type_symbol
 _atom_site_label
 _atom_site_symmetry_multiplicity
 _atom_site_fract_x
 _atom_site_fract_y
 _atom_site_fract_z
 _atom_site_occupancy
  Dy  Dy0  1  0.00000000  0.00000000  0.83789957  1
  Er  Er1  1  0.00000000  0.00000000  0.37571078  1
  Tl  Tl2  1  0.50000000  0.50000000  0.10949204  1
  Ga  Ga3  1  0.50000000  0.50000000  0.60485761  1
