# generated using pymatgen
data_Si(BiPd3)2
_symmetry_space_group_name_H-M   'P 1'
_cell_length_a   3.84527489
_cell_length_b   7.29739936
_cell_length_c   7.44360366
_cell_angle_alpha   119.35236047
_cell_angle_beta   105.09767734
_cell_angle_gamma   90.00000000
_symmetry_Int_Tables_number   1
_chemical_formula_structural   Si(BiPd3)2
_chemical_formula_sum   'Si1 Bi2 Pd6'
_cell_volume   173.73799614
_cell_formula_units_Z   1
loop_
 _symmetry_equiv_pos_site_id
 _symmetry_equiv_pos_as_xyz
  1  'x, y, z'
loop_
 _atom_site_type_symbol
 _atom_site_label
 _atom_site_symmetry_multiplicity
 _atom_site_fract_x
 _atom_site_fract_y
 _atom_site_fract_z
 _atom_site_occupancy
  Si  Si0  1  0.00000000  0.00000000  0.00000000  1
  Bi  Bi1  1  0.64698321  0.64815005  0.29629911  1
  Bi  Bi2  1  0.35301679  0.35184995  0.70370089  1
  Pd  Pd3  1  0.16314993  0.36981554  0.32611371  1
  Pd  Pd4  1  0.83685007  0.04370183  0.67388629  1
  Pd  Pd5  1  0.83685007  0.63018446  0.67388629  1
  Pd  Pd6  1  0.50000000  0.19774412  0.00000000  1
  Pd  Pd7  1  0.16314993  0.95629817  0.32611371  1
  Pd  Pd8  1  0.50000000  0.80225588  1.00000000  1
