# generated using pymatgen
data_Zr3TiNb3N8
_symmetry_space_group_name_H-M   'P 1'
_cell_length_a   6.28132465
_cell_length_b   6.28129132
_cell_length_c   6.34095041
_cell_angle_alpha   119.68993018
_cell_angle_beta   90.00022759
_cell_angle_gamma   119.99911963
_symmetry_Int_Tables_number   1
_chemical_formula_structural   Zr3TiNb3N8
_chemical_formula_sum   'Zr3 Ti1 Nb3 N8'
_cell_volume   177.73133524
_cell_formula_units_Z   1
loop_
 _symmetry_equiv_pos_site_id
 _symmetry_equiv_pos_as_xyz
  1  'x, y, z'
loop_
 _atom_site_type_symbol
 _atom_site_label
 _atom_site_symmetry_multiplicity
 _atom_site_fract_x
 _atom_site_fract_y
 _atom_site_fract_z
 _atom_site_occupancy
  Zr  Zr0  1  0.00000000  0.00000000  0.00000000  1
  Zr  Zr1  1  0.00000000  0.50000000  0.00000000  1
  Zr  Zr2  1  0.50000000  0.50000000  0.00000000  1
  Ti  Ti3  1  0.00000000  0.00000000  0.50000000  1
  Nb  Nb4  1  0.50000000  0.00000000  0.50000000  1
  Nb  Nb5  1  0.50000000  0.50000000  0.50000000  1
  Nb  Nb6  1  0.00000000  0.50000000  0.50000000  1
  N  N7  1  0.25102877  0.50205779  0.25308610  1
  N  N8  1  0.74897123  0.49794221  0.74691390  1
  N  N9  1  0.76120303  0.52240467  0.26626108  1
  N  N10  1  0.23879697  0.47759533  0.73373892  1
  N  N11  1  0.76120016  0.00506099  0.26625907  1
  N  N12  1  0.23879984  0.99493901  0.73374093  1
  N  N13  1  0.24385972  0.00506019  0.26625997  1
  N  N14  1  0.75614028  0.99493981  0.73374003  1
