# generated using pymatgen
data_MnTlCr2
_symmetry_space_group_name_H-M   'P 1'
_cell_length_a   5.10510624
_cell_length_b   5.06101315
_cell_length_c   2.72801787
_cell_angle_alpha   78.50534863
_cell_angle_beta   80.30476081
_cell_angle_gamma   116.25948031
_symmetry_Int_Tables_number   1
_chemical_formula_structural   MnTlCr2
_chemical_formula_sum   'Mn1 Tl1 Cr2'
_cell_volume   59.24337066
_cell_formula_units_Z   1
loop_
 _symmetry_equiv_pos_site_id
 _symmetry_equiv_pos_as_xyz
  1  'x, y, z'
loop_
 _atom_site_type_symbol
 _atom_site_label
 _atom_site_symmetry_multiplicity
 _atom_site_fract_x
 _atom_site_fract_y
 _atom_site_fract_z
 _atom_site_occupancy
  Cr  Cr0  1  0.00000000  0.00000000  0.00000000  1
  Cr  Cr1  1  0.00000000  0.50000000  0.50000000  1
  Mn  Mn2  1  0.50000000  0.50000000  0.00000000  1
  Tl  Tl3  1  0.50000000  0.00000000  0.50000000  1
