# generated using pymatgen
data_YNbBr
_symmetry_space_group_name_H-M   'P 1'
_cell_length_a   6.08495565
_cell_length_b   3.45405543
_cell_length_c   7.88003521
_cell_angle_alpha   90.00000000
_cell_angle_beta   111.41881579
_cell_angle_gamma   90.00000000
_symmetry_Int_Tables_number   1
_chemical_formula_structural   YNbBr
_chemical_formula_sum   'Y2 Nb2 Br2'
_cell_volume   154.18235532
_cell_formula_units_Z   2
loop_
 _symmetry_equiv_pos_site_id
 _symmetry_equiv_pos_as_xyz
  1  'x, y, z'
loop_
 _atom_site_type_symbol
 _atom_site_label
 _atom_site_symmetry_multiplicity
 _atom_site_fract_x
 _atom_site_fract_y
 _atom_site_fract_z
 _atom_site_occupancy
  Y  Y0  1  0.26392227  0.00000000  0.70309927  1
  Y  Y1  1  0.29209929  0.50000000  0.19657372  1
  Nb  Nb2  1  0.68309563  0.00000000  0.49734431  1
  Nb  Nb3  1  0.82547414  0.50000000  0.75588973  1
  Br  Br4  1  0.99378025  0.00000000  0.32062031  1
  Br  Br5  1  0.58387841  0.50000000  0.98421266  1
