# generated using pymatgen
data_Al(GeAu3)2
_symmetry_space_group_name_H-M   'P 1'
_cell_length_a   4.84978896
_cell_length_b   6.16885354
_cell_length_c   6.57882872
_cell_angle_alpha   75.04794545
_cell_angle_beta   68.37130680
_cell_angle_gamma   66.85329390
_symmetry_Int_Tables_number   1
_chemical_formula_structural   Al(GeAu3)2
_chemical_formula_sum   'Al1 Ge2 Au6'
_cell_volume   166.75682081
_cell_formula_units_Z   1
loop_
 _symmetry_equiv_pos_site_id
 _symmetry_equiv_pos_as_xyz
  1  'x, y, z'
loop_
 _atom_site_type_symbol
 _atom_site_label
 _atom_site_symmetry_multiplicity
 _atom_site_fract_x
 _atom_site_fract_y
 _atom_site_fract_z
 _atom_site_occupancy
  Al  Al0  1  0.00000000  0.50000000  0.50000000  1
  Ge  Ge1  1  0.14784937  0.69375286  0.01054840  1
  Ge  Ge2  1  0.85215063  0.30624714  0.98945160  1
  Au  Au3  1  0.16006940  0.03953128  0.64032991  1
  Au  Au4  1  0.30857848  0.21630898  0.16653406  1
  Au  Au5  1  0.69142152  0.78369102  0.83346594  1
  Au  Au6  1  0.50152936  0.32002405  0.67691624  1
  Au  Au7  1  0.49847064  0.67997595  0.32308376  1
  Au  Au8  1  0.83993060  0.96046872  0.35967009  1
