# generated using pymatgen
data_ZnInPd
_symmetry_space_group_name_H-M   'P 1'
_cell_length_a   3.22946210
_cell_length_b   7.60255490
_cell_length_c   7.60255489
_cell_angle_alpha   119.87898844
_cell_angle_beta   90.00000000
_cell_angle_gamma   90.00000000
_symmetry_Int_Tables_number   1
_chemical_formula_structural   ZnInPd
_chemical_formula_sum   'Zn3 In3 Pd3'
_cell_volume   161.84833576
_cell_formula_units_Z   3
loop_
 _symmetry_equiv_pos_site_id
 _symmetry_equiv_pos_as_xyz
  1  'x, y, z'
loop_
 _atom_site_type_symbol
 _atom_site_label
 _atom_site_symmetry_multiplicity
 _atom_site_fract_x
 _atom_site_fract_y
 _atom_site_fract_z
 _atom_site_occupancy
  Zn  Zn0  1  0.00000000  0.38465148  0.38465148  1
  Zn  Zn1  1  0.00000000  0.61546091  0.00005737  1
  Zn  Zn2  1  0.00000000  0.00005737  0.61546091  1
  Pd  Pd3  1  0.50000000  0.33320808  0.66674289  1
  Pd  Pd4  1  0.00000000  0.99977571  0.99977571  1
  Pd  Pd5  1  0.50000000  0.66674289  0.33320808  1
  In  In6  1  0.50000000  0.28891257  0.00039078  1
  In  In7  1  0.50000000  0.00039078  0.28891257  1
  In  In8  1  0.50000000  0.71088621  0.71088621  1
