# generated using pymatgen
data_Na(PuTl3)2
_symmetry_space_group_name_H-M   'P 1'
_cell_length_a   3.32298451
_cell_length_b   9.33966855
_cell_length_c   11.49522241
_cell_angle_alpha   113.96893775
_cell_angle_beta   125.42375950
_cell_angle_gamma   90.00000000
_symmetry_Int_Tables_number   1
_chemical_formula_structural   Na(PuTl3)2
_chemical_formula_sum   'Na1 Pu2 Tl6'
_cell_volume   252.01804018
_cell_formula_units_Z   1
loop_
 _symmetry_equiv_pos_site_id
 _symmetry_equiv_pos_as_xyz
  1  'x, y, z'
loop_
 _atom_site_type_symbol
 _atom_site_label
 _atom_site_symmetry_multiplicity
 _atom_site_fract_x
 _atom_site_fract_y
 _atom_site_fract_z
 _atom_site_occupancy
  Na  Na0  1  0.00000000  0.00000000  0.00000000  1
  Pu  Pu1  1  0.66831306  0.66717273  0.33434446  1
  Pu  Pu2  1  0.33168694  0.33282727  0.66565554  1
  Tl  Tl3  1  0.16022013  0.33280363  0.33243495  1
  Tl  Tl4  1  0.83977987  0.00036868  0.66756505  1
  Tl  Tl5  1  0.83977987  0.66719637  0.66756505  1
  Tl  Tl6  1  0.50000000  0.33246985  1.00000000  1
  Tl  Tl7  1  0.16022013  0.99963132  0.33243495  1
  Tl  Tl8  1  0.50000000  0.66753015  -0.00000000  1
