# generated using pymatgen
data_Ta3Ti5H12
_symmetry_space_group_name_H-M   'P 1'
_cell_length_a   9.56315837
_cell_length_b   9.56315837
_cell_length_c   9.56315837
_cell_angle_alpha   109.47122063
_cell_angle_beta   109.47122066
_cell_angle_gamma   109.47122065
_symmetry_Int_Tables_number   1
_chemical_formula_structural   Ta3Ti5H12
_chemical_formula_sum   'Ta12 Ti20 H48'
_cell_volume   673.25897736
_cell_formula_units_Z   4
loop_
 _symmetry_equiv_pos_site_id
 _symmetry_equiv_pos_as_xyz
  1  'x, y, z'
loop_
 _atom_site_type_symbol
 _atom_site_label
 _atom_site_symmetry_multiplicity
 _atom_site_fract_x
 _atom_site_fract_y
 _atom_site_fract_z
 _atom_site_occupancy
  Ta  Ta0  1  0.75000000  0.37500000  0.12500000  1
  Ta  Ta1  1  0.87500000  0.75000000  0.12500000  1
  Ta  Ta2  1  0.37500000  0.75000000  0.62500000  1
  Ta  Ta3  1  0.25000000  0.12500000  0.37500000  1
  Ta  Ta4  1  0.87500000  0.12500000  0.25000000  1
  Ta  Ta5  1  0.37500000  0.62500000  0.25000000  1
  Ta  Ta6  1  0.62500000  0.37500000  0.75000000  1
  Ta  Ta7  1  0.12500000  0.87500000  0.75000000  1
  Ta  Ta8  1  0.75000000  0.87500000  0.62500000  1
  Ta  Ta9  1  0.62500000  0.25000000  0.37500000  1
  Ta  Ta10  1  0.12500000  0.25000000  0.87500000  1
  Ta  Ta11  1  0.25000000  0.62500000  0.87500000  1
  Ti  Ti12  1  0.12500000  0.37500000  0.25000000  1
  Ti  Ti13  1  -0.00000000  0.50000000  0.00000000  1
  Ti  Ti14  1  0.00000000  0.00000000  0.00000000  1
  Ti  Ti15  1  0.37500000  0.25000000  0.12500000  1
  Ti  Ti16  1  0.50000000  0.00000000  0.50000000  1
  Ti  Ti17  1  0.50000000  0.50000000  0.00000000  1
  Ti  Ti18  1  0.12500000  0.75000000  0.37500000  1
  Ti  Ti19  1  0.75000000  0.12500000  0.87500000  1
  Ti  Ti20  1  0.75000000  0.62500000  0.37500000  1
  Ti  Ti21  1  0.37500000  0.12500000  0.75000000  1
  Ti  Ti22  1  0.62500000  0.87500000  0.25000000  1
  Ti  Ti23  1  0.50000000  0.50000000  0.50000000  1
  Ti  Ti24  1  0.50000000  0.00000000  0.00000000  1
  Ti  Ti25  1  0.00000000  0.00000000  0.50000000  1
  Ti  Ti26  1  0.25000000  0.37500000  0.62500000  1
  Ti  Ti27  1  0.25000000  0.87500000  0.12500000  1
  Ti  Ti28  1  0.00000000  0.50000000  0.50000000  1
  Ti  Ti29  1  0.87500000  0.25000000  0.62500000  1
  Ti  Ti30  1  0.62500000  0.75000000  0.87500000  1
  Ti  Ti31  1  0.87500000  0.62500000  0.75000000  1
  H  H32  1  0.72369068  0.14503065  0.06372240  1
  H  H33  1  0.34003172  0.56372240  0.41869175  1
  H  H34  1  0.93627760  0.35496935  0.27630932  1
  H  H35  1  0.56372240  0.22369068  0.14503065  1
  H  H36  1  0.57866003  0.72369068  0.65996828  1
  H  H37  1  0.93627760  0.58130825  0.15996828  1
  H  H38  1  0.34003172  0.77630932  0.42133997  1
  H  H39  1  0.08130825  0.92133997  0.14503065  1
  H  H40  1  0.58130825  0.93627760  0.65996828  1
  H  H41  1  0.72369068  0.57866003  0.15996828  1
  H  H42  1  0.77630932  0.43627760  0.35496935  1
  H  H43  1  0.84003172  0.91869175  0.06372240  1
  H  H44  1  0.14503065  0.72369068  0.56372240  1
  H  H45  1  0.35496935  0.41869175  0.07866003  1
  H  H46  1  0.07866003  0.91869175  0.35496935  1
  H  H47  1  0.42133997  0.14503065  0.58130825  1
  H  H48  1  0.07866003  0.15996828  0.22369068  1
  H  H49  1  0.43627760  0.65996828  0.08130825  1
  H  H50  1  0.84003172  0.92133997  0.27630932  1
  H  H51  1  0.14503065  0.42133997  0.08130825  1
  H  H52  1  0.35496935  0.93627760  0.77630932  1
  H  H53  1  0.58130825  0.64503065  0.42133997  1
  H  H54  1  0.91869175  0.84003172  0.56372240  1
  H  H55  1  0.77630932  0.34003172  0.92133997  1
  H  H56  1  0.41869175  0.35496935  0.57866003  1
  H  H57  1  0.08130825  0.15996828  0.43627760  1
  H  H58  1  0.22369068  0.65996828  0.07866003  1
  H  H59  1  0.15996828  0.07866003  0.72369068  1
  H  H60  1  0.64503065  0.06372240  0.22369068  1
  H  H61  1  0.85496935  0.57866003  0.91869175  1
  H  H62  1  0.56372240  0.34003172  0.91869175  1
  H  H63  1  0.57866003  0.85496935  0.41869175  1
  H  H64  1  0.92133997  0.84003172  0.77630932  1
  H  H65  1  0.92133997  0.08130825  0.64503065  1
  H  H66  1  0.85496935  0.27630932  0.43627760  1
  H  H67  1  0.15996828  0.08130825  0.93627760  1
  H  H68  1  0.64503065  0.58130825  0.92133997  1
  H  H69  1  0.41869175  0.06372240  0.34003172  1
  H  H70  1  0.27630932  0.42133997  0.84003172  1
  H  H71  1  0.22369068  0.56372240  0.64503065  1
  H  H72  1  0.91869175  0.07866003  0.85496935  1
  H  H73  1  0.65996828  0.22369068  0.57866003  1
  H  H74  1  0.43627760  0.77630932  0.85496935  1
  H  H75  1  0.06372240  0.41869175  0.84003172  1
  H  H76  1  0.42133997  0.27630932  0.34003172  1
  H  H77  1  0.06372240  0.64503065  0.72369068  1
  H  H78  1  0.65996828  0.43627760  0.58130825  1
  H  H79  1  0.27630932  0.85496935  0.93627760  1
