# generated using pymatgen
data_CsInH2(SeO4)2
_symmetry_space_group_name_H-M   'P 1'
_cell_length_a   9.57873376
_cell_length_b   9.57873376
_cell_length_c   7.63004963
_cell_angle_alpha   73.98015896
_cell_angle_beta   73.98015896
_cell_angle_gamma   112.95039788
_symmetry_Int_Tables_number   1
_chemical_formula_structural   CsInH2(SeO4)2
_chemical_formula_sum   'Cs2 In2 H4 Se4 O16'
_cell_volume   558.41018032
_cell_formula_units_Z   2
loop_
 _symmetry_equiv_pos_site_id
 _symmetry_equiv_pos_as_xyz
  1  'x, y, z'
loop_
 _atom_site_type_symbol
 _atom_site_label
 _atom_site_symmetry_multiplicity
 _atom_site_fract_x
 _atom_site_fract_y
 _atom_site_fract_z
 _atom_site_occupancy
  Cs  Cs0  1  0.40032762  0.59967238  0.25000000  1
  Cs  Cs1  1  0.59967238  0.40032762  0.75000000  1
  In  In2  1  0.75668025  0.24331975  0.25000000  1
  In  In3  1  0.24331975  0.75668025  0.75000000  1
  H  H4  1  0.95137687  0.00514784  0.72337868  1
  H  H5  1  0.04862313  0.99485216  0.27662132  1
  H  H6  1  0.99485216  0.04862313  0.77662132  1
  H  H7  1  0.00514784  0.95137687  0.22337868  1
  Se  Se8  1  0.39781527  0.12699077  0.35171923  1
  Se  Se9  1  0.60218473  0.87300923  0.64828077  1
  Se  Se10  1  0.87300923  0.60218473  0.14828077  1
  Se  Se11  1  0.12699077  0.39781527  0.85171923  1
  O  O12  1  0.33351092  0.24552632  0.24237238  1
  O  O13  1  0.66648908  0.75447368  0.75762762  1
  O  O14  1  0.75447368  0.66648908  0.25762762  1
  O  O15  1  0.24552632  0.33351092  0.74237238  1
  O  O16  1  0.51274517  0.20613606  0.47086050  1
  O  O17  1  0.48725483  0.79386394  0.52913950  1
  O  O18  1  0.79386394  0.48725483  0.02913950  1
  O  O19  1  0.20613606  0.51274517  0.97086050  1
  O  O20  1  0.54424187  0.11346307  0.17872956  1
  O  O21  1  0.45575813  0.88653693  0.82127044  1
  O  O22  1  0.88653693  0.45575813  0.32127044  1
  O  O23  1  0.11346307  0.54424187  0.67872956  1
  O  O24  1  0.23246533  0.93235072  0.51650860  1
  O  O25  1  0.76753467  0.06764928  0.48349140  1
  O  O26  1  0.06764928  0.76753467  0.98349140  1
  O  O27  1  0.93235072  0.23246533  0.01650860  1
