# generated using pymatgen
data_EuTl3P2
_symmetry_space_group_name_H-M   'P 1'
_cell_length_a   6.95393238
_cell_length_b   6.95287012
_cell_length_c   21.76592084
_cell_angle_alpha   90.00000000
_cell_angle_beta   90.00000000
_cell_angle_gamma   75.57096476
_symmetry_Int_Tables_number   1
_chemical_formula_structural   EuTl3P2
_chemical_formula_sum   'Eu2 Tl6 P4'
_cell_volume   1019.18253474
_cell_formula_units_Z   2
loop_
 _symmetry_equiv_pos_site_id
 _symmetry_equiv_pos_as_xyz
  1  'x, y, z'
loop_
 _atom_site_type_symbol
 _atom_site_label
 _atom_site_symmetry_multiplicity
 _atom_site_fract_x
 _atom_site_fract_y
 _atom_site_fract_z
 _atom_site_occupancy
  Eu  Eu0  1  0.10546932  0.87872784  0.52389505  1
  Eu  Eu1  1  0.60546933  0.37872787  0.52389504  1
  Tl  Tl2  1  0.60691785  0.88029306  0.65521498  1
  Tl  Tl3  1  0.57744776  0.35043611  0.34436570  1
  Tl  Tl4  1  0.10691772  0.38029298  0.65521497  1
  Tl  Tl5  1  0.07744785  0.85043608  0.34436570  1
  Tl  Tl6  1  0.60292199  0.87601877  0.47262994  1
  Tl  Tl7  1  0.10292198  0.37601877  0.47263000  1
  P  P8  1  0.85529937  0.62866742  0.56771088  1
  P  P9  1  0.85136843  0.12457556  0.43618342  1
  P  P10  1  0.35529934  0.12866742  0.56771088  1
  P  P11  1  0.35136845  0.62457557  0.43618344  1
