# generated using pymatgen
data_LiEuSe
_symmetry_space_group_name_H-M   'P 1'
_cell_length_a   4.35086302
_cell_length_b   4.25998115
_cell_length_c   4.25998116
_cell_angle_alpha   120.00000003
_cell_angle_beta   90.00000000
_cell_angle_gamma   90.00000000
_symmetry_Int_Tables_number   1
_chemical_formula_structural   LiEuSe
_chemical_formula_sum   'Li1 Eu1 Se1'
_cell_volume   68.37878780
_cell_formula_units_Z   1
loop_
 _symmetry_equiv_pos_site_id
 _symmetry_equiv_pos_as_xyz
  1  'x, y, z'
loop_
 _atom_site_type_symbol
 _atom_site_label
 _atom_site_symmetry_multiplicity
 _atom_site_fract_x
 _atom_site_fract_y
 _atom_site_fract_z
 _atom_site_occupancy
  Eu  Eu0  1  0.66668225  0.66666667  0.33333333  1
  Se  Se1  1  0.16680306  0.00000000  0.00000000  1
  Li  Li2  1  0.16651469  0.33333333  0.66666667  1
