# generated using pymatgen
data_CsTlGaAu
_symmetry_space_group_name_H-M   'P 1'
_cell_length_a   4.62331431
_cell_length_b   4.62331823
_cell_length_c   7.75157642
_cell_angle_alpha   107.23132258
_cell_angle_beta   107.23136589
_cell_angle_gamma   60.03299915
_symmetry_Int_Tables_number   1
_chemical_formula_structural   CsTlGaAu
_chemical_formula_sum   'Cs1 Tl1 Ga1 Au1'
_cell_volume   134.87831250
_cell_formula_units_Z   1
loop_
 _symmetry_equiv_pos_site_id
 _symmetry_equiv_pos_as_xyz
  1  'x, y, z'
loop_
 _atom_site_type_symbol
 _atom_site_label
 _atom_site_symmetry_multiplicity
 _atom_site_fract_x
 _atom_site_fract_y
 _atom_site_fract_z
 _atom_site_occupancy
  Cs  Cs0  1  0.47316112  0.47316953  0.25869212  1
  Tl  Tl1  1  0.27267045  0.27266792  0.65674635  1
  Ga  Ga2  1  0.01073052  0.01072785  0.87196084  1
  Au  Au3  1  0.67395791  0.67395469  0.86172069  1
