# generated using pymatgen
data_Pm5Pr3As8
_symmetry_space_group_name_H-M   'P 1'
_cell_length_a   8.53124642
_cell_length_b   8.53124642
_cell_length_c   8.53124642
_cell_angle_alpha   59.98690355
_cell_angle_beta   59.98690355
_cell_angle_gamma   59.98690354
_symmetry_Int_Tables_number   1
_chemical_formula_structural   Pm5Pr3As8
_chemical_formula_sum   'Pm5 Pr3 As8'
_cell_volume   438.92819289
_cell_formula_units_Z   1
loop_
 _symmetry_equiv_pos_site_id
 _symmetry_equiv_pos_as_xyz
  1  'x, y, z'
loop_
 _atom_site_type_symbol
 _atom_site_label
 _atom_site_symmetry_multiplicity
 _atom_site_fract_x
 _atom_site_fract_y
 _atom_site_fract_z
 _atom_site_occupancy
  Pm  Pm0  1  0.50000000  0.50000000  0.00000000  1
  Pm  Pm1  1  0.50000000  -0.00000000  0.50000000  1
  Pm  Pm2  1  0.00000000  0.00000000  0.00000000  1
  Pm  Pm3  1  -0.00000000  0.50000000  0.50000000  1
  Pm  Pm4  1  0.50000000  0.50000000  0.50000000  1
  Pr  Pr5  1  0.50000000  0.00000000  0.00000000  1
  Pr  Pr6  1  0.00000000  0.50000000  0.00000000  1
  Pr  Pr7  1  -0.00000000  -0.00000000  0.50000000  1
  As  As8  1  0.74999976  0.25274251  0.74999976  1
  As  As9  1  0.74999976  0.74999976  0.25274251  1
  As  As10  1  0.25274251  0.74999976  0.74999976  1
  As  As11  1  0.25134384  0.25134384  0.25134384  1
  As  As12  1  0.25000024  0.74725749  0.25000024  1
  As  As13  1  0.25000024  0.25000024  0.74725749  1
  As  As14  1  0.74725749  0.25000024  0.25000024  1
  As  As15  1  0.74865616  0.74865616  0.74865616  1
