# generated using pymatgen
data_YTl3
_symmetry_space_group_name_H-M   'P 1'
_cell_length_a   12.78746548
_cell_length_b   11.00868912
_cell_length_c   15.10175900
_cell_angle_alpha   90.00000000
_cell_angle_beta   90.00000000
_cell_angle_gamma   90.00000057
_symmetry_Int_Tables_number   1
_chemical_formula_structural   YTl3
_chemical_formula_sum   'Y4 Tl12'
_cell_volume   2125.92342486
_cell_formula_units_Z   4
loop_
 _symmetry_equiv_pos_site_id
 _symmetry_equiv_pos_as_xyz
  1  'x, y, z'
loop_
 _atom_site_type_symbol
 _atom_site_label
 _atom_site_symmetry_multiplicity
 _atom_site_fract_x
 _atom_site_fract_y
 _atom_site_fract_z
 _atom_site_occupancy
  Y  Y0  1  0.12483114  0.25000044  0.49999975  1
  Y  Y1  1  0.37516757  0.74999955  0.49999975  1
  Y  Y2  1  0.87516759  0.75000044  0.49999974  1
  Y  Y3  1  0.62483116  0.24999956  0.49999975  1
  Tl  Tl4  1  0.37481328  0.25000028  0.50000042  1
  Tl  Tl5  1  0.12518541  0.74999973  0.50000042  1
  Tl  Tl6  1  0.62518542  0.75000028  0.50000042  1
  Tl  Tl7  1  0.87481330  0.24999972  0.50000042  1
  Tl  Tl8  1  0.24999942  0.00000005  0.50336832  1
  Tl  Tl9  1  0.24999942  0.49999995  0.49663010  1
  Tl  Tl10  1  0.74999941  0.00000003  0.49663014  1
  Tl  Tl11  1  0.74999941  0.49999997  0.50336829  1
  Tl  Tl12  1  0.99999969  0.00000013  0.50000063  1
  Tl  Tl13  1  0.99999906  0.50000016  0.50000060  1
  Tl  Tl14  1  0.49999905  0.99999985  0.50000061  1
  Tl  Tl15  1  0.49999967  0.49999987  0.50000062  1
