# generated using pymatgen
data_NbCd(PbO3)2
_symmetry_space_group_name_H-M   'P 1'
_cell_length_a   5.78047649
_cell_length_b   5.99941852
_cell_length_c   8.35607068
_cell_angle_alpha   90.00000000
_cell_angle_beta   89.57110771
_cell_angle_gamma   90.00000000
_symmetry_Int_Tables_number   1
_chemical_formula_structural   NbCd(PbO3)2
_chemical_formula_sum   'Nb2 Cd2 Pb4 O12'
_cell_volume   289.77621527
_cell_formula_units_Z   2
loop_
 _symmetry_equiv_pos_site_id
 _symmetry_equiv_pos_as_xyz
  1  'x, y, z'
loop_
 _atom_site_type_symbol
 _atom_site_label
 _atom_site_symmetry_multiplicity
 _atom_site_fract_x
 _atom_site_fract_y
 _atom_site_fract_z
 _atom_site_occupancy
  Nb  Nb0  1  0.50000000  0.00000000  0.50000000  1
  Nb  Nb1  1  0.00000000  0.50000000  0.00000000  1
  Cd  Cd2  1  0.50000000  0.00000000  -0.00000000  1
  Cd  Cd3  1  0.00000000  0.50000000  0.50000000  1
  Pb  Pb4  1  0.00919402  0.95767442  0.25449910  1
  Pb  Pb5  1  0.50919402  0.54232558  0.75449910  1
  Pb  Pb6  1  0.99080598  0.04232558  0.74550090  1
  Pb  Pb7  1  0.49080598  0.45767442  0.24550090  1
  O  O8  1  0.28999870  0.67609530  0.04724663  1
  O  O9  1  0.78999870  0.82390470  0.54724663  1
  O  O10  1  0.71000130  0.32390470  0.95275337  1
  O  O11  1  0.21000130  0.17609530  0.45275337  1
  O  O12  1  0.33000378  0.71804631  0.43809097  1
  O  O13  1  0.83000378  0.78195369  0.93809097  1
  O  O14  1  0.66999622  0.28195369  0.56190903  1
  O  O15  1  0.16999622  0.21804631  0.06190903  1
  O  O16  1  0.89078386  0.54760434  0.23089983  1
  O  O17  1  0.39078386  0.95239566  0.73089983  1
  O  O18  1  0.10921614  0.45239566  0.76910017  1
  O  O19  1  0.60921614  0.04760434  0.26910017  1
