# generated using pymatgen
data_Mg3Si3Ni2
_symmetry_space_group_name_H-M   'P 1'
_cell_length_a   5.05548323
_cell_length_b   7.63138092
_cell_length_c   13.02334531
_cell_angle_alpha   90.00000000
_cell_angle_beta   90.00000000
_cell_angle_gamma   90.00000000
_symmetry_Int_Tables_number   1
_chemical_formula_structural   Mg3Si3Ni2
_chemical_formula_sum   'Mg12 Si12 Ni8'
_cell_volume   502.44480691
_cell_formula_units_Z   4
loop_
 _symmetry_equiv_pos_site_id
 _symmetry_equiv_pos_as_xyz
  1  'x, y, z'
loop_
 _atom_site_type_symbol
 _atom_site_label
 _atom_site_symmetry_multiplicity
 _atom_site_fract_x
 _atom_site_fract_y
 _atom_site_fract_z
 _atom_site_occupancy
  Mg  Mg0  1  0.10107735  0.46172655  0.38031466  1
  Mg  Mg1  1  0.60107735  0.03827345  0.61968534  1
  Mg  Mg2  1  0.89892265  0.53827345  0.88031466  1
  Mg  Mg3  1  0.39892265  0.96172655  0.11968534  1
  Mg  Mg4  1  0.89892265  0.53827345  0.61968534  1
  Mg  Mg5  1  0.39892265  0.96172655  0.38031466  1
  Mg  Mg6  1  0.10107735  0.46172655  0.11968534  1
  Mg  Mg7  1  0.60107735  0.03827345  0.88031466  1
  Mg  Mg8  1  0.60277986  0.31468412  0.25000000  1
  Mg  Mg9  1  0.10277986  0.18531588  0.75000000  1
  Mg  Mg10  1  0.39722014  0.68531588  0.75000000  1
  Mg  Mg11  1  0.89722014  0.81468412  0.25000000  1
  Si  Si12  1  0.09796188  0.16282574  0.25000000  1
  Si  Si13  1  0.59796188  0.33717426  0.75000000  1
  Si  Si14  1  0.90203812  0.83717426  0.75000000  1
  Si  Si15  1  0.40203812  0.66282574  0.25000000  1
  Si  Si16  1  0.63152308  0.29568212  0.46093483  1
  Si  Si17  1  0.13152308  0.20431788  0.53906517  1
  Si  Si18  1  0.36847692  0.70431788  0.96093483  1
  Si  Si19  1  0.86847692  0.79568212  0.03906517  1
  Si  Si20  1  0.36847692  0.70431788  0.53906517  1
  Si  Si21  1  0.86847692  0.79568212  0.46093483  1
  Si  Si22  1  0.63152308  0.29568212  0.03906517  1
  Si  Si23  1  0.13152308  0.20431788  0.96093483  1
  Ni  Ni24  1  0.90208771  0.07896604  0.40779090  1
  Ni  Ni25  1  0.40208771  0.42103396  0.59220910  1
  Ni  Ni26  1  0.09791229  0.92103396  0.90779090  1
  Ni  Ni27  1  0.59791229  0.57896604  0.09220910  1
  Ni  Ni28  1  0.09791229  0.92103396  0.59220910  1
  Ni  Ni29  1  0.59791229  0.57896604  0.40779090  1
  Ni  Ni30  1  0.90208771  0.07896604  0.09220910  1
  Ni  Ni31  1  0.40208771  0.42103396  0.90779090  1
