# generated using pymatgen
data_Rb2Ce(PdS2)2
_symmetry_space_group_name_H-M   'P 1'
_cell_length_a   4.13139748
_cell_length_b   7.78093431
_cell_length_c   7.77138099
_cell_angle_alpha   107.69533070
_cell_angle_beta   90.00000000
_cell_angle_gamma   105.39560091
_symmetry_Int_Tables_number   1
_chemical_formula_structural   Rb2Ce(PdS2)2
_chemical_formula_sum   'Rb2 Ce1 Pd2 S4'
_cell_volume   228.57223518
_cell_formula_units_Z   1
loop_
 _symmetry_equiv_pos_site_id
 _symmetry_equiv_pos_as_xyz
  1  'x, y, z'
loop_
 _atom_site_type_symbol
 _atom_site_label
 _atom_site_symmetry_multiplicity
 _atom_site_fract_x
 _atom_site_fract_y
 _atom_site_fract_z
 _atom_site_occupancy
  Rb  Rb0  1  0.86672941  0.73345883  0.43301621  1
  Rb  Rb1  1  0.13327059  0.26654117  0.56698379  1
  Ce  Ce2  1  0.00000000  0.00000000  0.00000000  1
  Pd  Pd3  1  0.31133957  0.62267815  0.99152436  1
  Pd  Pd4  1  0.68866043  0.37732185  0.00847564  1
  S  S5  1  0.80532579  0.61065057  0.83558324  1
  S  S6  1  0.19467421  0.38934943  0.16441676  1
  S  S7  1  0.48411331  0.96822661  0.22548676  1
  S  S8  1  0.51588669  0.03177339  0.77451324  1
