# generated using pymatgen
data_Rb2Li(HgI3)2
_symmetry_space_group_name_H-M   'P 1'
_cell_length_a   8.64815629
_cell_length_b   8.57887243
_cell_length_c   9.13153315
_cell_angle_alpha   116.55170851
_cell_angle_beta   90.00000000
_cell_angle_gamma   120.26751683
_symmetry_Int_Tables_number   1
_chemical_formula_structural   Rb2Li(HgI3)2
_chemical_formula_sum   'Rb2 Li1 Hg2 I6'
_cell_volume   500.66382853
_cell_formula_units_Z   1
loop_
 _symmetry_equiv_pos_site_id
 _symmetry_equiv_pos_as_xyz
  1  'x, y, z'
loop_
 _atom_site_type_symbol
 _atom_site_label
 _atom_site_symmetry_multiplicity
 _atom_site_fract_x
 _atom_site_fract_y
 _atom_site_fract_z
 _atom_site_occupancy
  Rb  Rb0  1  0.72944052  0.45888204  0.19460729  1
  Rb  Rb1  1  0.27055948  0.54111796  0.80539271  1
  Li  Li2  1  0.50000000  0.00000000  0.50000000  1
  Hg  Hg3  1  0.95822648  0.91645397  0.81987866  1
  Hg  Hg4  1  0.04177352  0.08354603  0.18012134  1
  I  I5  1  0.73508786  0.47017472  0.59937356  1
  I  I6  1  0.21161542  0.87698878  0.21381995  1
  I  I7  1  0.33462763  0.12301122  0.78618005  1
  I  I8  1  0.78838458  0.12301122  0.78618005  1
  I  I9  1  0.66537237  0.87698878  0.21381995  1
  I  I10  1  0.26491214  0.52982528  0.40062644  1
