# generated using pymatgen
data_Mo2PtCl
_symmetry_space_group_name_H-M   'P 1'
_cell_length_a   5.11891445
_cell_length_b   5.11891445
_cell_length_c   2.75826935
_cell_angle_alpha   80.16067791
_cell_angle_beta   80.16067792
_cell_angle_gamma   110.68046240
_symmetry_Int_Tables_number   1
_chemical_formula_structural   Mo2PtCl
_chemical_formula_sum   'Mo2 Pt1 Cl1'
_cell_volume   64.49373401
_cell_formula_units_Z   1
loop_
 _symmetry_equiv_pos_site_id
 _symmetry_equiv_pos_as_xyz
  1  'x, y, z'
loop_
 _atom_site_type_symbol
 _atom_site_label
 _atom_site_symmetry_multiplicity
 _atom_site_fract_x
 _atom_site_fract_y
 _atom_site_fract_z
 _atom_site_occupancy
  Cl  Cl0  1  0.00000000  0.50000000  0.50000000  1
  Mo  Mo1  1  0.00000000  0.00000000  0.00000000  1
  Mo  Mo2  1  0.50000000  0.50000000  0.00000000  1
  Pt  Pt3  1  0.50000000  -0.00000000  0.50000000  1
