# generated using pymatgen
data_TaSbRh
_symmetry_space_group_name_H-M   'P 1'
_cell_length_a   6.12385053
_cell_length_b   6.12385053
_cell_length_c   6.12385053
_cell_angle_alpha   150.16074166
_cell_angle_beta   150.16074166
_cell_angle_gamma   42.70550290
_symmetry_Int_Tables_number   1
_chemical_formula_structural   TaSbRh
_chemical_formula_sum   'Ta1 Sb1 Rh1'
_cell_volume   56.71294033
_cell_formula_units_Z   1
loop_
 _symmetry_equiv_pos_site_id
 _symmetry_equiv_pos_as_xyz
  1  'x, y, z'
loop_
 _atom_site_type_symbol
 _atom_site_label
 _atom_site_symmetry_multiplicity
 _atom_site_fract_x
 _atom_site_fract_y
 _atom_site_fract_z
 _atom_site_occupancy
  Ta  Ta0  1  0.64734187  0.64734187  0.00000000  1
  Sb  Sb1  1  0.33370889  0.33370889  0.00000000  1
  Rh  Rh2  1  0.01894924  0.01894924  0.00000000  1
