# generated using pymatgen
data_DyNpCo2
_symmetry_space_group_name_H-M   'P 1'
_cell_length_a   3.66196978
_cell_length_b   3.66196977
_cell_length_c   6.91857986
_cell_angle_alpha   74.65399152
_cell_angle_beta   74.65399153
_cell_angle_gamma   59.99999994
_symmetry_Int_Tables_number   1
_chemical_formula_structural   DyNpCo2
_chemical_formula_sum   'Dy1 Np1 Co2'
_cell_volume   76.50480185
_cell_formula_units_Z   1
loop_
 _symmetry_equiv_pos_site_id
 _symmetry_equiv_pos_as_xyz
  1  'x, y, z'
loop_
 _atom_site_type_symbol
 _atom_site_label
 _atom_site_symmetry_multiplicity
 _atom_site_fract_x
 _atom_site_fract_y
 _atom_site_fract_z
 _atom_site_occupancy
  Np  Np0  1  0.00000000  0.00000000  0.00000000  1
  Co  Co1  1  0.73876659  0.73876659  0.78369923  1
  Co  Co2  1  0.26123341  0.26123341  0.21630077  1
  Dy  Dy3  1  0.50000000  0.50000000  0.50000000  1
