# generated using pymatgen
data_CePu2Os
_symmetry_space_group_name_H-M   'P 1'
_cell_length_a   4.16962142
_cell_length_b   6.04151561
_cell_length_c   8.24504298
_cell_angle_alpha   90.00000000
_cell_angle_beta   90.00000000
_cell_angle_gamma   110.18672484
_symmetry_Int_Tables_number   1
_chemical_formula_structural   CePu2Os
_chemical_formula_sum   'Ce2 Pu4 Os2'
_cell_volume   194.94114308
_cell_formula_units_Z   2
loop_
 _symmetry_equiv_pos_site_id
 _symmetry_equiv_pos_as_xyz
  1  'x, y, z'
loop_
 _atom_site_type_symbol
 _atom_site_label
 _atom_site_symmetry_multiplicity
 _atom_site_fract_x
 _atom_site_fract_y
 _atom_site_fract_z
 _atom_site_occupancy
  Ce  Ce0  1  0.94306992  0.88614084  0.25000000  1
  Ce  Ce1  1  0.05693008  0.11385916  0.75000000  1
  Pu  Pu2  1  0.36168182  0.72336264  0.56388559  1
  Pu  Pu3  1  0.63831818  0.27663736  0.43611441  1
  Pu  Pu4  1  0.63831818  0.27663736  0.06388559  1
  Pu  Pu5  1  0.36168182  0.72336264  0.93611441  1
  Os  Os6  1  0.25787933  0.51575767  0.25000000  1
  Os  Os7  1  0.74212067  0.48424233  0.75000000  1
