# generated using pymatgen
data_Ho(NiGe2)2
_symmetry_space_group_name_H-M   'P 1'
_cell_length_a   4.08982100
_cell_length_b   6.58991944
_cell_length_c   17.16631323
_cell_angle_alpha   90.00000000
_cell_angle_beta   90.00000000
_cell_angle_gamma   90.00000000
_symmetry_Int_Tables_number   1
_chemical_formula_structural   Ho(NiGe2)2
_chemical_formula_sum   'Ho4 Ni8 Ge16'
_cell_volume   462.65945168
_cell_formula_units_Z   4
loop_
 _symmetry_equiv_pos_site_id
 _symmetry_equiv_pos_as_xyz
  1  'x, y, z'
loop_
 _atom_site_type_symbol
 _atom_site_label
 _atom_site_symmetry_multiplicity
 _atom_site_fract_x
 _atom_site_fract_y
 _atom_site_fract_z
 _atom_site_occupancy
  Ho  Ho0  1  0.75000000  0.01332331  0.64021215  1
  Ho  Ho1  1  0.25000000  0.98667669  0.35978785  1
  Ho  Ho2  1  0.25000000  0.51332331  0.85978785  1
  Ho  Ho3  1  0.75000000  0.48667669  0.14021215  1
  Ni  Ni4  1  0.25000000  0.75793380  0.53402930  1
  Ni  Ni5  1  0.75000000  0.24206620  0.46597070  1
  Ni  Ni6  1  0.75000000  0.25793380  0.96597070  1
  Ni  Ni7  1  0.25000000  0.74206620  0.03402930  1
  Ni  Ni8  1  0.25000000  0.98037081  0.78948329  1
  Ni  Ni9  1  0.75000000  0.01962919  0.21051671  1
  Ni  Ni10  1  0.75000000  0.48037081  0.71051671  1
  Ni  Ni11  1  0.25000000  0.51962919  0.28948329  1
  Ge  Ge12  1  0.25000000  0.28419258  0.70178518  1
  Ge  Ge13  1  0.75000000  0.71580742  0.29821482  1
  Ge  Ge14  1  0.75000000  0.78419258  0.79821482  1
  Ge  Ge15  1  0.25000000  0.21580742  0.20178518  1
  Ge  Ge16  1  0.25000000  0.69627714  0.67772898  1
  Ge  Ge17  1  0.75000000  0.30372286  0.32227102  1
  Ge  Ge18  1  0.75000000  0.19627714  0.82227102  1
  Ge  Ge19  1  0.25000000  0.80372286  0.17772898  1
  Ge  Ge20  1  0.25000000  0.13945874  0.52855921  1
  Ge  Ge21  1  0.75000000  0.86054126  0.47144079  1
  Ge  Ge22  1  0.75000000  0.63945874  0.97144079  1
  Ge  Ge23  1  0.25000000  0.36054126  0.02855921  1
  Ge  Ge24  1  0.25000000  0.48238203  0.43470736  1
  Ge  Ge25  1  0.75000000  0.51761797  0.56529264  1
  Ge  Ge26  1  0.75000000  0.98238203  0.06529264  1
  Ge  Ge27  1  0.25000000  0.01761797  0.93470736  1
