# generated using pymatgen
data_Pm2AlCo4P3
_symmetry_space_group_name_H-M   'P 1'
_cell_length_a   3.94297562
_cell_length_b   3.94297562
_cell_length_c   9.51048992
_cell_angle_alpha   90.00000000
_cell_angle_beta   90.00000000
_cell_angle_gamma   90.00000000
_symmetry_Int_Tables_number   1
_chemical_formula_structural   Pm2AlCo4P3
_chemical_formula_sum   'Pm2 Al1 Co4 P3'
_cell_volume   147.86012641
_cell_formula_units_Z   1
loop_
 _symmetry_equiv_pos_site_id
 _symmetry_equiv_pos_as_xyz
  1  'x, y, z'
loop_
 _atom_site_type_symbol
 _atom_site_label
 _atom_site_symmetry_multiplicity
 _atom_site_fract_x
 _atom_site_fract_y
 _atom_site_fract_z
 _atom_site_occupancy
  Pm  Pm0  1  0.50000000  0.00000000  0.24768526  1
  Pm  Pm1  1  0.00000000  0.50000000  0.75231474  1
  Al  Al2  1  0.50000000  0.50000000  0.50000000  1
  Co  Co3  1  0.50000000  0.50000000  0.00000000  1
  Co  Co4  1  0.00000000  0.00000000  0.00000000  1
  Co  Co5  1  0.50000000  0.00000000  0.63402394  1
  Co  Co6  1  0.00000000  0.50000000  0.36597606  1
  P  P7  1  0.00000000  0.00000000  0.50000000  1
  P  P8  1  0.50000000  0.00000000  0.87270133  1
  P  P9  1  0.00000000  0.50000000  0.12729867  1
