# generated using pymatgen
data_Er6PdSe3S2
_symmetry_space_group_name_H-M   'P 1'
_cell_length_a   3.91842889
_cell_length_b   8.12256944
_cell_length_c   8.98908486
_cell_angle_alpha   103.38674288
_cell_angle_beta   102.58893852
_cell_angle_gamma   90.00000000
_symmetry_Int_Tables_number   1
_chemical_formula_structural   Er6PdSe3S2
_chemical_formula_sum   'Er6 Pd1 Se3 S2'
_cell_volume   271.25318922
_cell_formula_units_Z   1
loop_
 _symmetry_equiv_pos_site_id
 _symmetry_equiv_pos_as_xyz
  1  'x, y, z'
loop_
 _atom_site_type_symbol
 _atom_site_label
 _atom_site_symmetry_multiplicity
 _atom_site_fract_x
 _atom_site_fract_y
 _atom_site_fract_z
 _atom_site_occupancy
  Er  Er0  1  0.33474969  0.90263791  0.66949938  1
  Er  Er1  1  0.67094982  0.57150536  0.34190064  1
  Er  Er2  1  0.66525031  0.09736209  0.33050062  1
  Er  Er3  1  0.00395041  0.24018296  0.00789983  1
  Er  Er4  1  0.99604959  0.75981704  0.99210017  1
  Er  Er5  1  0.32905018  0.42849464  0.65809936  1
  Pd  Pd6  1  0.50000000  0.00000000  0.00000000  1
  Se  Se7  1  0.50000000  0.50000000  0.00000000  1
  Se  Se8  1  0.83168993  0.16879279  0.66337986  1
  Se  Se9  1  0.16831007  0.83120721  0.33662014  1
  S  S10  1  0.83116576  0.66257995  0.66233152  1
  S  S11  1  0.16883424  0.33742005  0.33766848  1
