# generated using pymatgen
data_Y2Er4Fe23
_symmetry_space_group_name_H-M   'P 1'
_cell_length_a   8.46698929
_cell_length_b   8.46698929
_cell_length_c   8.46698929
_cell_angle_alpha   120.08101998
_cell_angle_beta   120.08311884
_cell_angle_gamma   89.85791030
_symmetry_Int_Tables_number   1
_chemical_formula_structural   Y2Er4Fe23
_chemical_formula_sum   'Y2 Er4 Fe23'
_cell_volume   428.67831894
_cell_formula_units_Z   1
loop_
 _symmetry_equiv_pos_site_id
 _symmetry_equiv_pos_as_xyz
  1  'x, y, z'
loop_
 _atom_site_type_symbol
 _atom_site_label
 _atom_site_symmetry_multiplicity
 _atom_site_fract_x
 _atom_site_fract_y
 _atom_site_fract_z
 _atom_site_occupancy
  Y  Y0  1  0.70847806  0.29191058  0.00038863  1
  Y  Y1  1  0.29152194  0.29191058  0.58343252  1
  Er  Er2  1  0.29001273  0.29038719  0.00037445  1
  Er  Er3  1  0.29069667  0.70970003  0.00039670  1
  Er  Er4  1  0.70930333  0.70970003  0.41900337  1
  Er  Er5  1  0.70998727  0.71036172  0.00037445  1
  Fe  Fe6  1  0.32407155  0.97271642  0.64864487  1
  Fe  Fe7  1  0.32490169  0.67512677  0.35022508  1
  Fe  Fe8  1  0.32473366  0.67577494  0.64948126  1
  Fe  Fe9  1  0.02629368  0.67577494  0.35104128  1
  Fe  Fe10  1  0.67509831  0.02532339  0.35022508  1
  Fe  Fe11  1  0.67592845  0.32457332  0.64864487  1
  Fe  Fe12  1  0.67526634  0.32474760  0.35104128  1
  Fe  Fe13  1  0.97370632  0.32474760  0.64948126  1
  Fe  Fe14  1  0.00000000  0.00006281  0.00006281  1
  Fe  Fe15  1  0.12252603  0.36561338  0.24308735  1
  Fe  Fe16  1  0.12133515  0.87879744  0.75746229  1
  Fe  Fe17  1  0.12090180  0.87719172  0.24192294  1
  Fe  Fe18  1  0.63526879  0.87719172  0.75628992  1
  Fe  Fe19  1  0.87866485  0.63612714  0.75746229  1
  Fe  Fe20  1  0.87747397  0.12056132  0.24308735  1
  Fe  Fe21  1  0.87909820  0.12102114  0.75628992  1
  Fe  Fe22  1  0.36473121  0.12102114  0.24192294  1
  Fe  Fe23  1  0.50065231  0.50053433  0.49996963  1
  Fe  Fe24  1  0.00056470  0.50053433  0.99988202  1
  Fe  Fe25  1  -0.00000000  0.50123392  0.50123392  1
  Fe  Fe26  1  0.99943530  0.99931732  0.49996963  1
  Fe  Fe27  1  0.49934769  0.99931732  0.99988202  1
  Fe  Fe28  1  0.50000000  0.99872184  0.49872184  1
