# generated using pymatgen
data_LiHo2PaP4
_symmetry_space_group_name_H-M   'P 1'
_cell_length_a   4.02042061
_cell_length_b   6.72448778
_cell_length_c   6.88650541
_cell_angle_alpha   108.52926969
_cell_angle_beta   90.00000000
_cell_angle_gamma   90.00000000
_symmetry_Int_Tables_number   1
_chemical_formula_structural   LiHo2PaP4
_chemical_formula_sum   'Li1 Ho2 Pa1 P4'
_cell_volume   176.52730052
_cell_formula_units_Z   1
loop_
 _symmetry_equiv_pos_site_id
 _symmetry_equiv_pos_as_xyz
  1  'x, y, z'
loop_
 _atom_site_type_symbol
 _atom_site_label
 _atom_site_symmetry_multiplicity
 _atom_site_fract_x
 _atom_site_fract_y
 _atom_site_fract_z
 _atom_site_occupancy
  Li  Li0  1  0.50000000  0.50000000  0.00000000  1
  Ho  Ho1  1  0.50000000  0.00000000  0.50000000  1
  Ho  Ho2  1  0.00000000  0.50000000  0.50000000  1
  Pa  Pa3  1  0.00000000  0.00000000  0.00000000  1
  P  P4  1  0.50000000  0.24877386  0.24349825  1
  P  P5  1  0.50000000  0.75122614  0.75650175  1
  P  P6  1  0.00000000  0.23964850  0.75274297  1
  P  P7  1  0.00000000  0.76035150  0.24725703  1
