# generated using pymatgen
data_Nd3MgGa
_symmetry_space_group_name_H-M   'P 1'
_cell_length_a   5.33323030
_cell_length_b   5.32509764
_cell_length_c   10.49200100
_cell_angle_alpha   90.00000000
_cell_angle_beta   75.27636733
_cell_angle_gamma   90.00000000
_symmetry_Int_Tables_number   1
_chemical_formula_structural   Nd3MgGa
_chemical_formula_sum   'Nd6 Mg2 Ga2'
_cell_volume   288.18801242
_cell_formula_units_Z   2
loop_
 _symmetry_equiv_pos_site_id
 _symmetry_equiv_pos_as_xyz
  1  'x, y, z'
loop_
 _atom_site_type_symbol
 _atom_site_label
 _atom_site_symmetry_multiplicity
 _atom_site_fract_x
 _atom_site_fract_y
 _atom_site_fract_z
 _atom_site_occupancy
  Nd  Nd0  1  0.75977587  0.25000000  0.12879326  1
  Nd  Nd1  1  0.38948675  0.25000000  0.86937649  1
  Nd  Nd2  1  0.57415436  0.25000000  0.50004528  1
  Nd  Nd3  1  0.25886425  0.75000000  0.13062351  1
  Nd  Nd4  1  0.88856913  0.75000000  0.87120674  1
  Nd  Nd5  1  0.07419964  0.75000000  0.49995472  1
  Mg  Mg6  1  0.66719748  0.75000000  0.31395804  1
  Mg  Mg7  1  0.98115552  0.25000000  0.68604196  1
  Ga  Ga8  1  0.48341477  0.75000000  0.68151546  1
  Ga  Ga9  1  0.16493023  0.25000000  0.31848454  1
