# generated using pymatgen
data_LaZnNi
_symmetry_space_group_name_H-M   'P 1'
_cell_length_a   5.82221626
_cell_length_b   5.82249414
_cell_length_c   3.32867652
_cell_angle_alpha   73.38555824
_cell_angle_beta   73.39473825
_cell_angle_gamma   33.21970344
_symmetry_Int_Tables_number   1
_chemical_formula_structural   LaZnNi
_chemical_formula_sum   'La1 Zn1 Ni1'
_cell_volume   59.00578933
_cell_formula_units_Z   1
loop_
 _symmetry_equiv_pos_site_id
 _symmetry_equiv_pos_as_xyz
  1  'x, y, z'
loop_
 _atom_site_type_symbol
 _atom_site_label
 _atom_site_symmetry_multiplicity
 _atom_site_fract_x
 _atom_site_fract_y
 _atom_site_fract_z
 _atom_site_occupancy
  La  La0  1  0.98985711  0.98985711  0.01014289  1
  Ni  Ni1  1  0.30426616  0.30426616  0.69573384  1
  Zn  Zn2  1  0.70587673  0.70587673  0.29412327  1
