# generated using pymatgen
data_Nd2Cu(Ni4B)3
_symmetry_space_group_name_H-M   'P 1'
_cell_length_a   6.74755996
_cell_length_b   6.74755996
_cell_length_c   6.74755996
_cell_angle_alpha   65.13835959
_cell_angle_beta   65.13835954
_cell_angle_gamma   65.13835951
_symmetry_Int_Tables_number   1
_chemical_formula_structural   Nd2Cu(Ni4B)3
_chemical_formula_sum   'Nd2 Cu1 Ni12 B3'
_cell_volume   241.57797107
_cell_formula_units_Z   1
loop_
 _symmetry_equiv_pos_site_id
 _symmetry_equiv_pos_as_xyz
  1  'x, y, z'
loop_
 _atom_site_type_symbol
 _atom_site_label
 _atom_site_symmetry_multiplicity
 _atom_site_fract_x
 _atom_site_fract_y
 _atom_site_fract_z
 _atom_site_occupancy
  Nd  Nd0  1  0.60129053  0.60129053  0.60129053  1
  Nd  Nd1  1  0.39870947  0.39870947  0.39870947  1
  Cu  Cu2  1  0.00000000  0.00000000  0.00000000  1
  Ni  Ni3  1  0.27730312  0.27730312  0.88634956  1
  Ni  Ni4  1  0.87025265  0.87025265  0.39955696  1
  Ni  Ni5  1  0.39955696  0.87025265  0.87025265  1
  Ni  Ni6  1  0.88634956  0.27730312  0.27730312  1
  Ni  Ni7  1  0.87025265  0.39955696  0.87025265  1
  Ni  Ni8  1  0.27730312  0.88634956  0.27730312  1
  Ni  Ni9  1  0.72269688  0.72269688  0.11365044  1
  Ni  Ni10  1  0.12974735  0.12974735  0.60044304  1
  Ni  Ni11  1  0.60044304  0.12974735  0.12974735  1
  Ni  Ni12  1  0.11365044  0.72269688  0.72269688  1
  Ni  Ni13  1  0.12974735  0.60044304  0.12974735  1
  Ni  Ni14  1  0.72269688  0.11365044  0.72269688  1
  B  B15  1  0.50000000  0.00000000  -0.00000000  1
  B  B16  1  -0.00000000  0.50000000  0.00000000  1
  B  B17  1  -0.00000000  -0.00000000  0.50000000  1
