# generated using pymatgen
data_PHRu
_symmetry_space_group_name_H-M   'P 1'
_cell_length_a   2.91846799
_cell_length_b   2.91021260
_cell_length_c   8.17216303
_cell_angle_alpha   90.00000000
_cell_angle_beta   110.62203310
_cell_angle_gamma   90.00000000
_symmetry_Int_Tables_number   1
_chemical_formula_structural   PHRu
_chemical_formula_sum   'P2 H2 Ru2'
_cell_volume   64.96169291
_cell_formula_units_Z   2
loop_
 _symmetry_equiv_pos_site_id
 _symmetry_equiv_pos_as_xyz
  1  'x, y, z'
loop_
 _atom_site_type_symbol
 _atom_site_label
 _atom_site_symmetry_multiplicity
 _atom_site_fract_x
 _atom_site_fract_y
 _atom_site_fract_z
 _atom_site_occupancy
  P  P0  1  0.75710547  0.00000000  0.51375614  1
  P  P1  1  0.75710547  0.50000000  0.01375614  1
  H  H2  1  0.52441377  0.00000000  0.80901134  1
  H  H3  1  0.52441377  0.50000000  0.30901134  1
  Ru  Ru4  1  0.41855075  0.00000000  0.17972253  1
  Ru  Ru5  1  0.41855075  0.50000000  0.67972253  1
