# generated using pymatgen
data_Hf5(TiAl)3
_symmetry_space_group_name_H-M   'P 1'
_cell_length_a   2.88177298
_cell_length_b   9.48168660
_cell_length_c   9.48168660
_cell_angle_alpha   119.99999999
_cell_angle_beta   90.00000000
_cell_angle_gamma   90.00000000
_symmetry_Int_Tables_number   1
_chemical_formula_structural   Hf5(TiAl)3
_chemical_formula_sum   'Hf5 Ti3 Al3'
_cell_volume   224.36834770
_cell_formula_units_Z   1
loop_
 _symmetry_equiv_pos_site_id
 _symmetry_equiv_pos_as_xyz
  1  'x, y, z'
loop_
 _atom_site_type_symbol
 _atom_site_label
 _atom_site_symmetry_multiplicity
 _atom_site_fract_x
 _atom_site_fract_y
 _atom_site_fract_z
 _atom_site_occupancy
  Hf  Hf0  1  0.50000000  0.33333333  0.66666667  1
  Hf  Hf1  1  0.50000000  0.66666667  0.33333333  1
  Hf  Hf2  1  0.50000000  0.30987997  0.30987997  1
  Hf  Hf3  1  0.50000000  0.00000000  0.69012003  1
  Hf  Hf4  1  0.50000000  0.69012003  0.00000000  1
  Ti  Ti5  1  0.50000000  0.60761208  0.60761208  1
  Ti  Ti6  1  0.50000000  0.00000000  0.39238792  1
  Ti  Ti7  1  0.50000000  0.39238792  0.00000000  1
  Al  Al8  1  0.00000000  0.84218465  0.84218465  1
  Al  Al9  1  0.00000000  0.15781535  0.00000000  1
  Al  Al10  1  0.00000000  -0.00000000  0.15781535  1
