# generated using pymatgen
data_MgTa2Se
_symmetry_space_group_name_H-M   'P 1'
_cell_length_a   5.48833939
_cell_length_b   5.48833939
_cell_length_c   5.48833939
_cell_angle_alpha   137.60976712
_cell_angle_beta   137.60976716
_cell_angle_gamma   61.50118521
_symmetry_Int_Tables_number   1
_chemical_formula_structural   MgTa2Se
_chemical_formula_sum   'Mg1 Ta2 Se1'
_cell_volume   74.28544908
_cell_formula_units_Z   1
loop_
 _symmetry_equiv_pos_site_id
 _symmetry_equiv_pos_as_xyz
  1  'x, y, z'
loop_
 _atom_site_type_symbol
 _atom_site_label
 _atom_site_symmetry_multiplicity
 _atom_site_fract_x
 _atom_site_fract_y
 _atom_site_fract_z
 _atom_site_occupancy
  Mg  Mg0  1  0.25000000  0.75000000  0.50000000  1
  Se  Se1  1  0.75000000  0.25000000  0.50000000  1
  Ta  Ta2  1  0.00000000  0.00000000  0.00000000  1
  Ta  Ta3  1  0.50000000  0.50000000  0.00000000  1
