# generated using pymatgen
data_CaGe(PS4)2
_symmetry_space_group_name_H-M   'P 1'
_cell_length_a   5.91538641
_cell_length_b   5.91538641
_cell_length_c   8.54527574
_cell_angle_alpha   90.00000000
_cell_angle_beta   90.00000000
_cell_angle_gamma   119.99999992
_symmetry_Int_Tables_number   1
_chemical_formula_structural   CaGe(PS4)2
_chemical_formula_sum   'Ca1 Ge1 P2 S8'
_cell_volume   258.95419557
_cell_formula_units_Z   1
loop_
 _symmetry_equiv_pos_site_id
 _symmetry_equiv_pos_as_xyz
  1  'x, y, z'
loop_
 _atom_site_type_symbol
 _atom_site_label
 _atom_site_symmetry_multiplicity
 _atom_site_fract_x
 _atom_site_fract_y
 _atom_site_fract_z
 _atom_site_occupancy
  Ca  Ca0  1  0.00000000  0.00000000  0.00000000  1
  Ge  Ge1  1  0.00000000  0.00000000  0.50000000  1
  P  P2  1  0.66666667  0.33333333  0.25276675  1
  P  P3  1  0.33333333  0.66666667  0.74723325  1
  S  S4  1  0.33333333  0.66666667  0.98094826  1
  S  S5  1  0.31652727  0.31463840  0.31325259  1
  S  S6  1  0.68536160  0.00188887  0.31325259  1
  S  S7  1  0.66666667  0.33333333  0.01905174  1
  S  S8  1  0.31463840  0.99811113  0.68674741  1
  S  S9  1  0.68347273  0.68536160  0.68674741  1
  S  S10  1  0.00188887  0.31652727  0.68674741  1
  S  S11  1  0.99811113  0.68347273  0.31325259  1
