# generated using pymatgen
data_Al3Cl5
_symmetry_space_group_name_H-M   'P 1'
_cell_length_a   7.33605339
_cell_length_b   7.33605339
_cell_length_c   3.35151460
_cell_angle_alpha   90.00000000
_cell_angle_beta   90.00000000
_cell_angle_gamma   99.71322454
_symmetry_Int_Tables_number   1
_chemical_formula_structural   Al3Cl5
_chemical_formula_sum   'Al3 Cl5'
_cell_volume   177.78504275
_cell_formula_units_Z   1
loop_
 _symmetry_equiv_pos_site_id
 _symmetry_equiv_pos_as_xyz
  1  'x, y, z'
loop_
 _atom_site_type_symbol
 _atom_site_label
 _atom_site_symmetry_multiplicity
 _atom_site_fract_x
 _atom_site_fract_y
 _atom_site_fract_z
 _atom_site_occupancy
  Al  Al0  1  0.50000000  0.50000000  0.00000000  1
  Al  Al1  1  0.79614207  0.20385793  0.50000000  1
  Al  Al2  1  0.20385793  0.79614207  0.50000000  1
  Cl  Cl3  1  0.00000000  0.00000000  0.00000000  1
  Cl  Cl4  1  0.00000000  0.50000000  0.00000000  1
  Cl  Cl5  1  0.50000000  0.00000000  0.00000000  1
  Cl  Cl6  1  0.33599697  0.33599697  0.50000000  1
  Cl  Cl7  1  0.66400303  0.66400303  0.50000000  1
