# generated using pymatgen
data_Mg2GaB2Pt5
_symmetry_space_group_name_H-M   'P 1'
_cell_length_a   3.16226034
_cell_length_b   9.42541810
_cell_length_c   9.42541810
_cell_angle_alpha   90.00000000
_cell_angle_beta   90.00000000
_cell_angle_gamma   90.00000000
_symmetry_Int_Tables_number   1
_chemical_formula_structural   Mg2GaB2Pt5
_chemical_formula_sum   'Mg4 Ga2 B4 Pt10'
_cell_volume   280.93048533
_cell_formula_units_Z   2
loop_
 _symmetry_equiv_pos_site_id
 _symmetry_equiv_pos_as_xyz
  1  'x, y, z'
loop_
 _atom_site_type_symbol
 _atom_site_label
 _atom_site_symmetry_multiplicity
 _atom_site_fract_x
 _atom_site_fract_y
 _atom_site_fract_z
 _atom_site_occupancy
  Mg  Mg0  1  0.00000000  0.67539930  0.17539930  1
  Mg  Mg1  1  0.00000000  0.32460070  0.82460070  1
  Mg  Mg2  1  0.00000000  0.17539930  0.32460070  1
  Mg  Mg3  1  0.00000000  0.82460070  0.67539930  1
  Ga  Ga4  1  0.00000000  0.00000000  0.00000000  1
  Ga  Ga5  1  0.00000000  0.50000000  0.50000000  1
  B  B6  1  0.00000000  0.12543404  0.62543404  1
  B  B7  1  0.00000000  0.87456596  0.37456596  1
  B  B8  1  0.00000000  0.62543404  0.87456596  1
  B  B9  1  0.00000000  0.37456596  0.12543404  1
  Pt  Pt10  1  0.50000000  0.21510304  0.07227379  1
  Pt  Pt11  1  0.50000000  0.78489696  0.92772621  1
  Pt  Pt12  1  0.50000000  0.07227379  0.78489696  1
  Pt  Pt13  1  0.50000000  0.71510304  0.42772621  1
  Pt  Pt14  1  0.50000000  0.92772621  0.21510304  1
  Pt  Pt15  1  0.50000000  0.28489696  0.57227379  1
  Pt  Pt16  1  0.50000000  0.57227379  0.71510304  1
  Pt  Pt17  1  0.50000000  0.42772621  0.28489696  1
  Pt  Pt18  1  0.50000000  0.50000000  0.00000000  1
  Pt  Pt19  1  0.50000000  0.00000000  0.50000000  1
