# generated using pymatgen
data_PaBi2Mo
_symmetry_space_group_name_H-M   'P 1'
_cell_length_a   3.23958458
_cell_length_b   3.23958458
_cell_length_c   11.38426183
_cell_angle_alpha   81.81999751
_cell_angle_beta   81.81999749
_cell_angle_gamma   59.99999996
_symmetry_Int_Tables_number   1
_chemical_formula_structural   PaBi2Mo
_chemical_formula_sum   'Pa1 Bi2 Mo1'
_cell_volume   102.06390579
_cell_formula_units_Z   1
loop_
 _symmetry_equiv_pos_site_id
 _symmetry_equiv_pos_as_xyz
  1  'x, y, z'
loop_
 _atom_site_type_symbol
 _atom_site_label
 _atom_site_symmetry_multiplicity
 _atom_site_fract_x
 _atom_site_fract_y
 _atom_site_fract_z
 _atom_site_occupancy
  Mo  Mo0  1  0.00000000  0.00000000  0.00000000  1
  Pa  Pa1  1  0.50000000  0.50000000  0.50000000  1
  Bi  Bi2  1  0.08375797  0.08375797  0.74872710  1
  Bi  Bi3  1  0.91624203  0.91624203  0.25127290  1
