# generated using pymatgen
data_Hf2GePt
_symmetry_space_group_name_H-M   'P 1'
_cell_length_a   3.77997748
_cell_length_b   3.77997748
_cell_length_c   6.94126384
_cell_angle_alpha   74.19983093
_cell_angle_beta   74.19983095
_cell_angle_gamma   59.99999997
_symmetry_Int_Tables_number   1
_chemical_formula_structural   Hf2GePt
_chemical_formula_sum   'Hf2 Ge1 Pt1'
_cell_volume   81.53535494
_cell_formula_units_Z   1
loop_
 _symmetry_equiv_pos_site_id
 _symmetry_equiv_pos_as_xyz
  1  'x, y, z'
loop_
 _atom_site_type_symbol
 _atom_site_label
 _atom_site_symmetry_multiplicity
 _atom_site_fract_x
 _atom_site_fract_y
 _atom_site_fract_z
 _atom_site_occupancy
  Ge  Ge0  1  0.50000000  0.50000000  0.50000000  1
  Hf  Hf1  1  0.25006393  0.25006393  0.24980920  1
  Hf  Hf2  1  0.74993607  0.74993607  0.75019080  1
  Pt  Pt3  1  0.00000000  0.00000000  0.00000000  1
