# generated using pymatgen
data_Ho2ThMg
_symmetry_space_group_name_H-M   'P 1'
_cell_length_a   3.52721529
_cell_length_b   3.52721529
_cell_length_c   11.35562518
_cell_angle_alpha   80.93973484
_cell_angle_beta   80.93973484
_cell_angle_gamma   59.95087407
_symmetry_Int_Tables_number   1
_chemical_formula_structural   Ho2ThMg
_chemical_formula_sum   'Ho2 Th1 Mg1'
_cell_volume   120.25219352
_cell_formula_units_Z   1
loop_
 _symmetry_equiv_pos_site_id
 _symmetry_equiv_pos_as_xyz
  1  'x, y, z'
loop_
 _atom_site_type_symbol
 _atom_site_label
 _atom_site_symmetry_multiplicity
 _atom_site_fract_x
 _atom_site_fract_y
 _atom_site_fract_z
 _atom_site_occupancy
  Ho  Ho0  1  0.08435074  0.08435074  0.74971638  1
  Ho  Ho1  1  0.24912929  0.24912929  0.25065656  1
  Th  Th2  1  0.66679009  0.66679009  0.99995458  1
  Mg  Mg3  1  0.49972987  0.49972987  0.49967147  1
