# generated using pymatgen
data_ReW3
_symmetry_space_group_name_H-M   'P 1'
_cell_length_a   2.83006243
_cell_length_b   2.83006243
_cell_length_c   9.43136457
_cell_angle_alpha   81.37106850
_cell_angle_beta   81.37106850
_cell_angle_gamma   60.00000010
_symmetry_Int_Tables_number   1
_chemical_formula_structural   ReW3
_chemical_formula_sum   'Re1 W3'
_cell_volume   64.42878854
_cell_formula_units_Z   1
loop_
 _symmetry_equiv_pos_site_id
 _symmetry_equiv_pos_as_xyz
  1  'x, y, z'
loop_
 _atom_site_type_symbol
 _atom_site_label
 _atom_site_symmetry_multiplicity
 _atom_site_fract_x
 _atom_site_fract_y
 _atom_site_fract_z
 _atom_site_occupancy
  Re  Re0  1  0.00000000  0.00000000  0.00000000  1
  W  W1  1  0.74710685  0.74710685  0.75867945  1
  W  W2  1  0.50000000  0.50000000  0.50000000  1
  W  W3  1  0.25289315  0.25289315  0.24132055  1
