# generated using pymatgen
data_Zr2Ag3Hg
_symmetry_space_group_name_H-M   'P 1'
_cell_length_a   5.63261632
_cell_length_b   5.63261658
_cell_length_c   8.87789484
_cell_angle_alpha   99.58091840
_cell_angle_beta   99.58092086
_cell_angle_gamma   118.38073807
_symmetry_Int_Tables_number   1
_chemical_formula_structural   Zr2Ag3Hg
_chemical_formula_sum   'Zr4 Ag6 Hg2'
_cell_volume   234.36059990
_cell_formula_units_Z   2
loop_
 _symmetry_equiv_pos_site_id
 _symmetry_equiv_pos_as_xyz
  1  'x, y, z'
loop_
 _atom_site_type_symbol
 _atom_site_label
 _atom_site_symmetry_multiplicity
 _atom_site_fract_x
 _atom_site_fract_y
 _atom_site_fract_z
 _atom_site_occupancy
  Zr  Zr0  1  0.25000000  0.75000000  0.50000000  1
  Zr  Zr1  1  0.75127086  0.75127086  1.00000000  1
  Zr  Zr2  1  0.75000000  0.25000000  0.50000000  1
  Zr  Zr3  1  0.24872914  0.24872914  0.00000000  1
  Ag  Ag4  1  0.66953196  0.16569891  0.83523087  1
  Ag  Ag5  1  0.83430109  0.33046804  0.16476913  1
  Ag  Ag6  1  0.33046804  0.83430109  0.16476913  1
  Ag  Ag7  1  0.16569891  0.66953196  0.83523087  1
  Ag  Ag8  1  0.83470612  0.83470612  0.66941324  1
  Ag  Ag9  1  0.16529388  0.16529388  0.33058676  1
  Hg  Hg10  1  0.33364851  0.33364851  0.66729702  1
  Hg  Hg11  1  0.66635149  0.66635149  0.33270298  1
