# generated using pymatgen
data_Ca(SO3)3
_symmetry_space_group_name_H-M   'P 1'
_cell_length_a   7.41839780
_cell_length_b   7.41839693
_cell_length_c   7.12061736
_cell_angle_alpha   89.99998377
_cell_angle_beta   89.99999856
_cell_angle_gamma   98.85361737
_symmetry_Int_Tables_number   1
_chemical_formula_structural   Ca(SO3)3
_chemical_formula_sum   'Ca2 S6 O18'
_cell_volume   387.19705491
_cell_formula_units_Z   2
loop_
 _symmetry_equiv_pos_site_id
 _symmetry_equiv_pos_as_xyz
  1  'x, y, z'
loop_
 _atom_site_type_symbol
 _atom_site_label
 _atom_site_symmetry_multiplicity
 _atom_site_fract_x
 _atom_site_fract_y
 _atom_site_fract_z
 _atom_site_occupancy
  Ca  Ca0  1  0.60262266  0.60262266  1.00000000  1
  Ca  Ca1  1  0.39737734  0.39737734  0.50000000  1
  S  S2  1  0.12444225  0.80108837  0.04317433  1
  S  S3  1  0.87555775  0.19891163  0.54317433  1
  S  S4  1  0.80108837  0.12444225  0.95682567  1
  S  S5  1  0.19891163  0.87555775  0.45682567  1
  S  S6  1  0.28114468  0.28114468  0.00000000  1
  S  S7  1  0.71885532  0.71885532  0.50000000  1
  O  O8  1  0.30031365  0.09359962  0.94247410  1
  O  O9  1  0.69968635  0.90640038  0.44247410  1
  O  O10  1  0.09359962  0.30031365  0.05752590  1
  O  O11  1  0.90640038  0.69968635  0.55752590  1
  O  O12  1  0.34820043  0.40512946  0.83808104  1
  O  O13  1  0.65179957  0.59487054  0.33808104  1
  O  O14  1  0.40512946  0.34820043  0.16191896  1
  O  O15  1  0.59487054  0.65179957  0.66191896  1
  O  O16  1  0.27672413  0.70738365  0.44675260  1
  O  O17  1  0.72327587  0.29261635  0.94675260  1
  O  O18  1  0.70738365  0.27672413  0.55324740  1
  O  O19  1  0.29261635  0.72327587  0.05324740  1
  O  O20  1  0.32335807  0.04409491  0.49674284  1
  O  O21  1  0.67664193  0.95590509  0.99674284  1
  O  O22  1  0.04409491  0.32335807  0.50325716  1
  O  O23  1  0.95590509  0.67664193  0.00325716  1
  O  O24  1  0.09642141  0.90357859  0.25000000  1
  O  O25  1  0.90357859  0.09642141  0.75000000  1
