# generated using pymatgen
data_Pa2GaCo4P3
_symmetry_space_group_name_H-M   'P 1'
_cell_length_a   3.89343769
_cell_length_b   3.89343769
_cell_length_c   9.46312620
_cell_angle_alpha   90.00000000
_cell_angle_beta   90.00000000
_cell_angle_gamma   90.00000000
_symmetry_Int_Tables_number   1
_chemical_formula_structural   Pa2GaCo4P3
_chemical_formula_sum   'Pa2 Ga1 Co4 P3'
_cell_volume   143.45017727
_cell_formula_units_Z   1
loop_
 _symmetry_equiv_pos_site_id
 _symmetry_equiv_pos_as_xyz
  1  'x, y, z'
loop_
 _atom_site_type_symbol
 _atom_site_label
 _atom_site_symmetry_multiplicity
 _atom_site_fract_x
 _atom_site_fract_y
 _atom_site_fract_z
 _atom_site_occupancy
  Pa  Pa0  1  0.50000000  0.00000000  0.24469838  1
  Pa  Pa1  1  0.00000000  0.50000000  0.75530162  1
  Ga  Ga2  1  0.50000000  0.50000000  0.50000000  1
  Co  Co3  1  0.50000000  0.50000000  0.00000000  1
  Co  Co4  1  0.00000000  0.00000000  0.00000000  1
  Co  Co5  1  0.50000000  0.00000000  0.63927084  1
  Co  Co6  1  0.00000000  0.50000000  0.36072916  1
  P  P7  1  0.00000000  0.00000000  0.50000000  1
  P  P8  1  0.50000000  0.00000000  0.87187918  1
  P  P9  1  0.00000000  0.50000000  0.12812082  1
