# generated using pymatgen
data_CsPuZnSe3
_symmetry_space_group_name_H-M   'P 1'
_cell_length_a   4.24905032
_cell_length_b   8.36668063
_cell_length_c   11.15020084
_cell_angle_alpha   90.00000000
_cell_angle_beta   90.00000000
_cell_angle_gamma   104.70145831
_symmetry_Int_Tables_number   1
_chemical_formula_structural   CsPuZnSe3
_chemical_formula_sum   'Cs2 Pu2 Zn2 Se6'
_cell_volume   383.41717691
_cell_formula_units_Z   2
loop_
 _symmetry_equiv_pos_site_id
 _symmetry_equiv_pos_as_xyz
  1  'x, y, z'
loop_
 _atom_site_type_symbol
 _atom_site_label
 _atom_site_symmetry_multiplicity
 _atom_site_fract_x
 _atom_site_fract_y
 _atom_site_fract_z
 _atom_site_occupancy
  Cs  Cs0  1  0.25606233  0.51311059  0.25000000  1
  Cs  Cs1  1  0.74393767  0.48688941  0.75000000  1
  Zn  Zn2  1  0.53593342  0.07234238  0.25000000  1
  Zn  Zn3  1  0.46406658  0.92765762  0.75000000  1
  Se  Se4  1  0.61582408  0.23181952  0.06253800  1
  Se  Se5  1  0.05563597  0.11111285  0.75000000  1
  Se  Se6  1  0.61582408  0.23181952  0.43746200  1
  Se  Se7  1  0.94436403  0.88888715  0.25000000  1
  Se  Se8  1  0.38417592  0.76818048  0.93746200  1
  Se  Se9  1  0.38417592  0.76818048  0.56253800  1
  Pu  Pu10  1  0.00000000  0.00000000  0.00000000  1
  Pu  Pu11  1  0.00000000  0.00000000  0.50000000  1
