# generated using pymatgen
data_Rb2CoMoCl6
_symmetry_space_group_name_H-M   'P 1'
_cell_length_a   7.34761762
_cell_length_b   7.34761762
_cell_length_c   6.90422299
_cell_angle_alpha   57.85184321
_cell_angle_beta   57.85184321
_cell_angle_gamma   90.00000000
_symmetry_Int_Tables_number   1
_chemical_formula_structural   Rb2CoMoCl6
_chemical_formula_sum   'Rb2 Co1 Mo1 Cl6'
_cell_volume   245.47719715
_cell_formula_units_Z   1
loop_
 _symmetry_equiv_pos_site_id
 _symmetry_equiv_pos_as_xyz
  1  'x, y, z'
loop_
 _atom_site_type_symbol
 _atom_site_label
 _atom_site_symmetry_multiplicity
 _atom_site_fract_x
 _atom_site_fract_y
 _atom_site_fract_z
 _atom_site_occupancy
  Mo  Mo0  1  0.00000000  0.00000000  0.00000000  1
  Co  Co1  1  0.50000000  0.50000000  0.00000000  1
  Rb  Rb2  1  0.75000000  0.25000000  0.50000000  1
  Rb  Rb3  1  0.25000000  0.75000000  0.50000000  1
  Cl  Cl4  1  0.26013203  0.26013203  0.47973594  1
  Cl  Cl5  1  0.73986797  0.73986797  0.52026406  1
  Cl  Cl6  1  0.24106095  0.24106095  0.00000000  1
  Cl  Cl7  1  0.75893905  0.75893905  0.00000000  1
  Cl  Cl8  1  0.75893905  0.24106095  0.00000000  1
  Cl  Cl9  1  0.24106095  0.75893905  0.00000000  1
