# generated using pymatgen
data_Sm4Hg2C
_symmetry_space_group_name_H-M   'P 1'
_cell_length_a   5.06253958
_cell_length_b   5.06253958
_cell_length_c   8.33535081
_cell_angle_alpha   107.67869831
_cell_angle_beta   107.67869831
_cell_angle_gamma   90.00000000
_symmetry_Int_Tables_number   1
_chemical_formula_structural   Sm4Hg2C
_chemical_formula_sum   'Sm4 Hg2 C1'
_cell_volume   192.92488651
_cell_formula_units_Z   1
loop_
 _symmetry_equiv_pos_site_id
 _symmetry_equiv_pos_as_xyz
  1  'x, y, z'
loop_
 _atom_site_type_symbol
 _atom_site_label
 _atom_site_symmetry_multiplicity
 _atom_site_fract_x
 _atom_site_fract_y
 _atom_site_fract_z
 _atom_site_occupancy
  C  C0  1  0.00000000  0.00000000  0.00000000  1
  Hg  Hg1  1  0.62964249  0.62964249  0.25928498  1
  Hg  Hg2  1  0.37035751  0.37035751  0.74071502  1
  Sm  Sm3  1  0.83282637  0.83282637  0.66565274  1
  Sm  Sm4  1  0.16717363  0.16717363  0.33434726  1
  Sm  Sm5  1  0.00000000  0.50000000  0.00000000  1
  Sm  Sm6  1  0.50000000  0.00000000  0.00000000  1
