# generated using pymatgen
data_LiBeBr2
_symmetry_space_group_name_H-M   'P 1'
_cell_length_a   3.42047082
_cell_length_b   3.54390093
_cell_length_c   6.80187549
_cell_angle_alpha   80.58428350
_cell_angle_beta   90.00000000
_cell_angle_gamma   90.00000000
_symmetry_Int_Tables_number   1
_chemical_formula_structural   LiBeBr2
_chemical_formula_sum   'Li1 Be1 Br2'
_cell_volume   81.34020414
_cell_formula_units_Z   1
loop_
 _symmetry_equiv_pos_site_id
 _symmetry_equiv_pos_as_xyz
  1  'x, y, z'
loop_
 _atom_site_type_symbol
 _atom_site_label
 _atom_site_symmetry_multiplicity
 _atom_site_fract_x
 _atom_site_fract_y
 _atom_site_fract_z
 _atom_site_occupancy
  Be  Be0  1  0.50000000  0.75000000  0.75000000  1
  Br  Br1  1  0.00000000  0.70642527  0.99876234  1
  Br  Br2  1  0.00000000  0.79357473  0.50123766  1
  Li  Li3  1  0.50000000  0.25000000  0.25000000  1
