# generated using pymatgen
data_Rb(ZnGe)2
_symmetry_space_group_name_H-M   'P 1'
_cell_length_a   8.63058396
_cell_length_b   8.63058396
_cell_length_c   2.95299943
_cell_angle_alpha   90.00000000
_cell_angle_beta   90.00000000
_cell_angle_gamma   90.00000000
_symmetry_Int_Tables_number   1
_chemical_formula_structural   Rb(ZnGe)2
_chemical_formula_sum   'Rb2 Zn4 Ge4'
_cell_volume   219.96000798
_cell_formula_units_Z   2
loop_
 _symmetry_equiv_pos_site_id
 _symmetry_equiv_pos_as_xyz
  1  'x, y, z'
loop_
 _atom_site_type_symbol
 _atom_site_label
 _atom_site_symmetry_multiplicity
 _atom_site_fract_x
 _atom_site_fract_y
 _atom_site_fract_z
 _atom_site_occupancy
  Ge  Ge0  1  0.35838464  0.85838464  0.00000000  1
  Ge  Ge1  1  0.85838464  0.64161536  0.00000000  1
  Ge  Ge2  1  0.64161536  0.14161536  0.00000000  1
  Ge  Ge3  1  0.14161536  0.35838464  0.00000000  1
  Zn  Zn4  1  0.13897961  0.63897961  0.50000000  1
  Zn  Zn5  1  0.63897961  0.86102039  0.50000000  1
  Zn  Zn6  1  0.86102039  0.36102039  0.50000000  1
  Zn  Zn7  1  0.36102039  0.13897961  0.50000000  1
  Rb  Rb8  1  0.00000000  0.00000000  0.00000000  1
  Rb  Rb9  1  0.50000000  0.50000000  0.00000000  1
