# generated using pymatgen
data_GdTaFeRu
_symmetry_space_group_name_H-M   'P 1'
_cell_length_a   4.59274658
_cell_length_b   4.59274658
_cell_length_c   4.59274658
_cell_angle_alpha   59.99999997
_cell_angle_beta   60.00000001
_cell_angle_gamma   59.99999999
_symmetry_Int_Tables_number   1
_chemical_formula_structural   GdTaFeRu
_chemical_formula_sum   'Gd1 Ta1 Fe1 Ru1'
_cell_volume   68.50187349
_cell_formula_units_Z   1
loop_
 _symmetry_equiv_pos_site_id
 _symmetry_equiv_pos_as_xyz
  1  'x, y, z'
loop_
 _atom_site_type_symbol
 _atom_site_label
 _atom_site_symmetry_multiplicity
 _atom_site_fract_x
 _atom_site_fract_y
 _atom_site_fract_z
 _atom_site_occupancy
  Ru  Ru0  1  0.75000000  0.75000000  0.75000000  1
  Gd  Gd1  1  0.50000000  0.50000000  0.50000000  1
  Fe  Fe2  1  0.25000000  0.25000000  0.25000000  1
  Ta  Ta3  1  0.00000000  0.00000000  0.00000000  1
