# generated using pymatgen
data_Na2Cu2BiO6
_symmetry_space_group_name_H-M   'P 1'
_cell_length_a   5.39749796
_cell_length_b   5.39749796
_cell_length_c   5.62215234
_cell_angle_alpha   90.00000000
_cell_angle_beta   90.00000000
_cell_angle_gamma   120.00000001
_symmetry_Int_Tables_number   1
_chemical_formula_structural   Na2Cu2BiO6
_chemical_formula_sum   'Na2 Cu2 Bi1 O6'
_cell_volume   141.84636613
_cell_formula_units_Z   1
loop_
 _symmetry_equiv_pos_site_id
 _symmetry_equiv_pos_as_xyz
  1  'x, y, z'
loop_
 _atom_site_type_symbol
 _atom_site_label
 _atom_site_symmetry_multiplicity
 _atom_site_fract_x
 _atom_site_fract_y
 _atom_site_fract_z
 _atom_site_occupancy
  Na  Na0  1  0.66666667  0.33333333  0.49996681  1
  Na  Na1  1  0.33333333  0.66666667  0.50003319  1
  Cu  Cu2  1  0.33333333  0.66666667  0.00001320  1
  Cu  Cu3  1  0.66666667  0.33333333  0.99998680  1
  Bi  Bi4  1  0.00000000  0.00000000  0.00000000  1
  O  O5  1  0.99999951  0.34605118  0.80468974  1
  O  O6  1  0.65394882  0.65394833  0.80468974  1
  O  O7  1  0.34605167  0.00000049  0.80468974  1
  O  O8  1  0.00000049  0.65394882  0.19531026  1
  O  O9  1  0.34605118  0.34605167  0.19531026  1
  O  O10  1  0.65394833  0.99999951  0.19531026  1
