# generated using pymatgen
data_SiRh
_symmetry_space_group_name_H-M   'P 1'
_cell_length_a   4.72430398
_cell_length_b   4.72430399
_cell_length_c   3.96058122
_cell_angle_alpha   90.00000000
_cell_angle_beta   90.00000000
_cell_angle_gamma   142.09052989
_symmetry_Int_Tables_number   1
_chemical_formula_structural   SiRh
_chemical_formula_sum   'Si2 Rh2'
_cell_volume   54.31213022
_cell_formula_units_Z   2
loop_
 _symmetry_equiv_pos_site_id
 _symmetry_equiv_pos_as_xyz
  1  'x, y, z'
loop_
 _atom_site_type_symbol
 _atom_site_label
 _atom_site_symmetry_multiplicity
 _atom_site_fract_x
 _atom_site_fract_y
 _atom_site_fract_z
 _atom_site_occupancy
  Rh  Rh0  1  0.85747783  0.14252217  0.75000000  1
  Rh  Rh1  1  0.14252217  0.85747783  0.25000000  1
  Si  Si2  1  0.58831379  0.41168621  0.75000000  1
  Si  Si3  1  0.41168621  0.58831379  0.25000000  1
