# generated using pymatgen
data_MnFeAsRu
_symmetry_space_group_name_H-M   'P 1'
_cell_length_a   4.16604868
_cell_length_b   4.16604868
_cell_length_c   4.16604868
_cell_angle_alpha   60.00000002
_cell_angle_beta   59.99999997
_cell_angle_gamma   60.00000000
_symmetry_Int_Tables_number   1
_chemical_formula_structural   MnFeAsRu
_chemical_formula_sum   'Mn1 Fe1 As1 Ru1'
_cell_volume   51.12790796
_cell_formula_units_Z   1
loop_
 _symmetry_equiv_pos_site_id
 _symmetry_equiv_pos_as_xyz
  1  'x, y, z'
loop_
 _atom_site_type_symbol
 _atom_site_label
 _atom_site_symmetry_multiplicity
 _atom_site_fract_x
 _atom_site_fract_y
 _atom_site_fract_z
 _atom_site_occupancy
  Ru  Ru0  1  0.25000000  0.25000000  0.25000000  1
  As  As1  1  0.50000000  0.50000000  0.50000000  1
  Mn  Mn2  1  0.00000000  0.00000000  0.00000000  1
  Fe  Fe3  1  0.75000000  0.75000000  0.75000000  1
