# generated using pymatgen
data_ZnGaC2
_symmetry_space_group_name_H-M   'P 1'
_cell_length_a   4.16290474
_cell_length_b   4.16290474
_cell_length_c   6.41219491
_cell_angle_alpha   71.05814790
_cell_angle_beta   71.05814790
_cell_angle_gamma   90.00000000
_symmetry_Int_Tables_number   1
_chemical_formula_structural   ZnGaC2
_chemical_formula_sum   'Zn2 Ga2 C4'
_cell_volume   98.72095947
_cell_formula_units_Z   2
loop_
 _symmetry_equiv_pos_site_id
 _symmetry_equiv_pos_as_xyz
  1  'x, y, z'
loop_
 _atom_site_type_symbol
 _atom_site_label
 _atom_site_symmetry_multiplicity
 _atom_site_fract_x
 _atom_site_fract_y
 _atom_site_fract_z
 _atom_site_occupancy
  Zn  Zn0  1  0.50000000  0.50000000  0.00000000  1
  Zn  Zn1  1  0.25000000  0.75000000  0.50000000  1
  C  C2  1  0.62863699  0.12500000  0.25000000  1
  C  C3  1  0.12136301  0.62500000  0.25000000  1
  C  C4  1  0.37500000  0.37136301  0.75000000  1
  C  C5  1  0.87500000  0.87863699  0.75000000  1
  Ga  Ga6  1  0.00000000  0.00000000  0.00000000  1
  Ga  Ga7  1  0.75000000  0.25000000  0.50000000  1
