# generated using pymatgen
data_Pm2FeF8
_symmetry_space_group_name_H-M   'P 1'
_cell_length_a   3.75068127
_cell_length_b   5.34604296
_cell_length_c   7.85421720
_cell_angle_alpha   110.18532752
_cell_angle_beta   103.81330814
_cell_angle_gamma   90.00081548
_symmetry_Int_Tables_number   1
_chemical_formula_structural   Pm2FeF8
_chemical_formula_sum   'Pm2 Fe1 F8'
_cell_volume   142.95187054
_cell_formula_units_Z   1
loop_
 _symmetry_equiv_pos_site_id
 _symmetry_equiv_pos_as_xyz
  1  'x, y, z'
loop_
 _atom_site_type_symbol
 _atom_site_label
 _atom_site_symmetry_multiplicity
 _atom_site_fract_x
 _atom_site_fract_y
 _atom_site_fract_z
 _atom_site_occupancy
  F  F0  1  0.59092381  0.39646889  0.18187161  1
  F  F1  1  0.32150871  0.03991647  0.64302342  1
  F  F2  1  0.22487191  0.32577000  0.44974682  1
  F  F3  1  0.04245251  0.82845327  0.08486502  1
  F  F4  1  0.77512809  0.67423000  0.55025318  1
  F  F5  1  0.67849129  0.96008353  0.35697658  1
  F  F6  1  0.40907619  0.60353111  0.81812839  1
  F  F7  1  0.95754749  0.17154673  0.91513498  1
  Fe  Fe8  1  0.50000000  -0.00000000  -0.00000000  1
  Pm  Pm9  1  0.17155585  0.67968741  0.34311970  1
  Pm  Pm10  1  0.82844415  0.32031259  0.65688030  1
