# generated using pymatgen
data_V2AgAu2
_symmetry_space_group_name_H-M   'P 1'
_cell_length_a   7.82638459
_cell_length_b   7.82638459
_cell_length_c   2.76883212
_cell_angle_alpha   90.00000000
_cell_angle_beta   90.00000000
_cell_angle_gamma   90.00000000
_symmetry_Int_Tables_number   1
_chemical_formula_structural   V2AgAu2
_chemical_formula_sum   'V4 Ag2 Au4'
_cell_volume   169.59732390
_cell_formula_units_Z   2
loop_
 _symmetry_equiv_pos_site_id
 _symmetry_equiv_pos_as_xyz
  1  'x, y, z'
loop_
 _atom_site_type_symbol
 _atom_site_label
 _atom_site_symmetry_multiplicity
 _atom_site_fract_x
 _atom_site_fract_y
 _atom_site_fract_z
 _atom_site_occupancy
  Au  Au0  1  0.18661363  0.68661363  0.50000000  1
  Au  Au1  1  0.68661363  0.81338637  0.50000000  1
  Au  Au2  1  0.81338637  0.31338637  0.50000000  1
  Au  Au3  1  0.31338637  0.18661363  0.50000000  1
  Ag  Ag4  1  0.00000000  0.00000000  0.00000000  1
  Ag  Ag5  1  0.50000000  0.50000000  0.00000000  1
  V  V6  1  0.39675024  0.89675024  0.00000000  1
  V  V7  1  0.89675024  0.60324976  0.00000000  1
  V  V8  1  0.60324976  0.10324976  0.00000000  1
  V  V9  1  0.10324976  0.39675024  0.00000000  1
