# generated using pymatgen
data_NiSb3
_symmetry_space_group_name_H-M   'P 1'
_cell_length_a   3.74924811
_cell_length_b   3.38347666
_cell_length_c   7.64488776
_cell_angle_alpha   90.00000000
_cell_angle_beta   90.00000000
_cell_angle_gamma   90.00000000
_symmetry_Int_Tables_number   1
_chemical_formula_structural   NiSb3
_chemical_formula_sum   'Ni1 Sb3'
_cell_volume   96.97917378
_cell_formula_units_Z   1
loop_
 _symmetry_equiv_pos_site_id
 _symmetry_equiv_pos_as_xyz
  1  'x, y, z'
loop_
 _atom_site_type_symbol
 _atom_site_label
 _atom_site_symmetry_multiplicity
 _atom_site_fract_x
 _atom_site_fract_y
 _atom_site_fract_z
 _atom_site_occupancy
  Ni  Ni0  1  0.00000000  0.00000000  0.00464756  1
  Sb  Sb1  1  0.50000000  0.00000000  0.51743198  1
  Sb  Sb2  1  0.50000000  0.50000000  0.88166410  1
  Sb  Sb3  1  0.00000000  0.50000000  0.26292303  1
