# generated using pymatgen
data_RbAl(HgTe2)2
_symmetry_space_group_name_H-M   'P 1'
_cell_length_a   7.26008647
_cell_length_b   7.50813483
_cell_length_c   7.50813483
_cell_angle_alpha   73.43080479
_cell_angle_beta   61.08697699
_cell_angle_gamma   61.08697701
_symmetry_Int_Tables_number   1
_chemical_formula_structural   RbAl(HgTe2)2
_chemical_formula_sum   'Rb1 Al1 Hg2 Te4'
_cell_volume   312.89165115
_cell_formula_units_Z   1
loop_
 _symmetry_equiv_pos_site_id
 _symmetry_equiv_pos_as_xyz
  1  'x, y, z'
loop_
 _atom_site_type_symbol
 _atom_site_label
 _atom_site_symmetry_multiplicity
 _atom_site_fract_x
 _atom_site_fract_y
 _atom_site_fract_z
 _atom_site_occupancy
  Rb  Rb0  1  0.00000000  0.00000000  0.00000000  1
  Al  Al1  1  0.50000000  0.50000000  0.50000000  1
  Hg  Hg2  1  0.17265997  0.32734003  0.32734003  1
  Hg  Hg3  1  0.82734003  0.67265997  0.67265997  1
  Te  Te4  1  0.45301050  0.16323777  0.52421058  1
  Te  Te5  1  0.14045785  0.83676223  0.47578942  1
  Te  Te6  1  0.85954115  0.52421058  0.16323777  1
  Te  Te7  1  0.54699050  0.47578942  0.83676223  1
