# generated using pymatgen
data_LiNdH6Rh
_symmetry_space_group_name_H-M   'P 1'
_cell_length_a   4.56242621
_cell_length_b   4.56244017
_cell_length_c   4.41574252
_cell_angle_alpha   89.99876850
_cell_angle_beta   89.99998761
_cell_angle_gamma   59.99870774
_symmetry_Int_Tables_number   1
_chemical_formula_structural   LiNdH6Rh
_chemical_formula_sum   'Li1 Nd1 H6 Rh1'
_cell_volume   79.60159208
_cell_formula_units_Z   1
loop_
 _symmetry_equiv_pos_site_id
 _symmetry_equiv_pos_as_xyz
  1  'x, y, z'
loop_
 _atom_site_type_symbol
 _atom_site_label
 _atom_site_symmetry_multiplicity
 _atom_site_fract_x
 _atom_site_fract_y
 _atom_site_fract_z
 _atom_site_occupancy
  Li  Li0  1  0.66664208  0.66667883  0.50001324  1
  Nd  Nd1  1  0.99997681  0.00000055  0.00000754  1
  H  H2  1  0.02228276  0.48895459  0.23497642  1
  H  H3  1  0.48888317  0.02235180  0.76499385  1
  H  H4  1  0.48872009  0.48890438  0.76497956  1
  H  H5  1  0.02232124  0.48874852  0.76499324  1
  H  H6  1  0.48893626  0.48873171  0.23499523  1
  H  H7  1  0.48870130  0.02233589  0.23498444  1
  Rh  Rh8  1  0.33329979  0.33334381  0.49996746  1
