# generated using pymatgen
data_Np3Sc5S12
_symmetry_space_group_name_H-M   'P 1'
_cell_length_a   13.47157227
_cell_length_b   13.47157227
_cell_length_c   13.47157227
_cell_angle_alpha   109.47122063
_cell_angle_beta   109.47122063
_cell_angle_gamma   109.47122064
_symmetry_Int_Tables_number   1
_chemical_formula_structural   Np3Sc5S12
_chemical_formula_sum   'Np12 Sc20 S48'
_cell_volume   1882.05783555
_cell_formula_units_Z   4
loop_
 _symmetry_equiv_pos_site_id
 _symmetry_equiv_pos_as_xyz
  1  'x, y, z'
loop_
 _atom_site_type_symbol
 _atom_site_label
 _atom_site_symmetry_multiplicity
 _atom_site_fract_x
 _atom_site_fract_y
 _atom_site_fract_z
 _atom_site_occupancy
  Np  Np0  1  0.75000000  0.37500000  0.12500000  1
  Np  Np1  1  0.87500000  0.75000000  0.12500000  1
  Np  Np2  1  0.37500000  0.75000000  0.62500000  1
  Np  Np3  1  0.25000000  0.12500000  0.37500000  1
  Np  Np4  1  0.87500000  0.12500000  0.25000000  1
  Np  Np5  1  0.37500000  0.62500000  0.25000000  1
  Np  Np6  1  0.62500000  0.37500000  0.75000000  1
  Np  Np7  1  0.12500000  0.87500000  0.75000000  1
  Np  Np8  1  0.75000000  0.87500000  0.62500000  1
  Np  Np9  1  0.62500000  0.25000000  0.37500000  1
  Np  Np10  1  0.12500000  0.25000000  0.87500000  1
  Np  Np11  1  0.25000000  0.62500000  0.87500000  1
  Sc  Sc12  1  0.12500000  0.37500000  0.25000000  1
  Sc  Sc13  1  0.00000000  0.50000000  0.00000000  1
  Sc  Sc14  1  0.00000000  0.00000000  0.00000000  1
  Sc  Sc15  1  0.37500000  0.25000000  0.12500000  1
  Sc  Sc16  1  0.50000000  0.00000000  0.50000000  1
  Sc  Sc17  1  0.50000000  0.50000000  0.00000000  1
  Sc  Sc18  1  0.12500000  0.75000000  0.37500000  1
  Sc  Sc19  1  0.75000000  0.12500000  0.87500000  1
  Sc  Sc20  1  0.75000000  0.62500000  0.37500000  1
  Sc  Sc21  1  0.37500000  0.12500000  0.75000000  1
  Sc  Sc22  1  0.62500000  0.87500000  0.25000000  1
  Sc  Sc23  1  0.50000000  0.50000000  0.50000000  1
  Sc  Sc24  1  0.50000000  0.00000000  0.00000000  1
  Sc  Sc25  1  0.00000000  0.00000000  0.50000000  1
  Sc  Sc26  1  0.25000000  0.37500000  0.62500000  1
  Sc  Sc27  1  0.25000000  0.87500000  0.12500000  1
  Sc  Sc28  1  0.00000000  0.50000000  0.50000000  1
  Sc  Sc29  1  0.87500000  0.25000000  0.62500000  1
  Sc  Sc30  1  0.62500000  0.75000000  0.87500000  1
  Sc  Sc31  1  0.87500000  0.62500000  0.75000000  1
  S  S32  1  0.71644286  0.12705808  0.04066758  1
  S  S33  1  0.32422473  0.54066758  0.41360951  1
  S  S34  1  0.95933242  0.37294192  0.28355714  1
  S  S35  1  0.54066758  0.21644286  0.12705808  1
  S  S36  1  0.58938478  0.71644286  0.67577527  1
  S  S37  1  0.95933242  0.58639049  0.17577527  1
  S  S38  1  0.32422473  0.78355714  0.41061522  1
  S  S39  1  0.08639049  0.91061522  0.12705808  1
  S  S40  1  0.58639049  0.95933242  0.67577527  1
  S  S41  1  0.71644286  0.58938478  0.17577527  1
  S  S42  1  0.78355714  0.45933242  0.37294192  1
  S  S43  1  0.82422473  0.91360951  0.04066758  1
  S  S44  1  0.12705808  0.71644286  0.54066758  1
  S  S45  1  0.37294192  0.41360951  0.08938478  1
  S  S46  1  0.08938478  0.91360951  0.37294192  1
  S  S47  1  0.41061522  0.12705808  0.58639049  1
  S  S48  1  0.08938478  0.17577527  0.21644286  1
  S  S49  1  0.45933242  0.67577527  0.08639049  1
  S  S50  1  0.82422473  0.91061522  0.28355714  1
  S  S51  1  0.12705808  0.41061522  0.08639049  1
  S  S52  1  0.37294192  0.95933242  0.78355714  1
  S  S53  1  0.58639049  0.62705808  0.41061522  1
  S  S54  1  0.91360951  0.82422473  0.54066758  1
  S  S55  1  0.78355714  0.32422473  0.91061522  1
  S  S56  1  0.41360951  0.37294192  0.58938478  1
  S  S57  1  0.08639049  0.17577527  0.45933242  1
  S  S58  1  0.21644286  0.67577527  0.08938478  1
  S  S59  1  0.17577527  0.08938478  0.71644286  1
  S  S60  1  0.62705808  0.04066758  0.21644286  1
  S  S61  1  0.87294192  0.58938478  0.91360951  1
  S  S62  1  0.54066758  0.32422473  0.91360951  1
  S  S63  1  0.58938478  0.87294192  0.41360951  1
  S  S64  1  0.91061522  0.82422473  0.78355714  1
  S  S65  1  0.91061522  0.08639049  0.62705808  1
  S  S66  1  0.87294192  0.28355714  0.45933242  1
  S  S67  1  0.17577527  0.08639049  0.95933242  1
  S  S68  1  0.62705808  0.58639049  0.91061522  1
  S  S69  1  0.41360951  0.04066758  0.32422473  1
  S  S70  1  0.28355714  0.41061522  0.82422473  1
  S  S71  1  0.21644286  0.54066758  0.62705808  1
  S  S72  1  0.91360951  0.08938478  0.87294192  1
  S  S73  1  0.67577527  0.21644286  0.58938478  1
  S  S74  1  0.45933242  0.78355714  0.87294192  1
  S  S75  1  0.04066758  0.41360951  0.82422473  1
  S  S76  1  0.41061522  0.28355714  0.32422473  1
  S  S77  1  0.04066758  0.62705808  0.71644286  1
  S  S78  1  0.67577527  0.45933242  0.58639049  1
  S  S79  1  0.28355714  0.87294192  0.95933242  1
