# generated using pymatgen
data_Pr4AlSeI2
_symmetry_space_group_name_H-M   'P 1'
_cell_length_a   4.41971218
_cell_length_b   7.52918044
_cell_length_c   8.20101068
_cell_angle_alpha   108.58724851
_cell_angle_beta   90.00000000
_cell_angle_gamma   90.00000000
_symmetry_Int_Tables_number   1
_chemical_formula_structural   Pr4AlSeI2
_chemical_formula_sum   'Pr4 Al1 Se1 I2'
_cell_volume   258.66866165
_cell_formula_units_Z   1
loop_
 _symmetry_equiv_pos_site_id
 _symmetry_equiv_pos_as_xyz
  1  'x, y, z'
loop_
 _atom_site_type_symbol
 _atom_site_label
 _atom_site_symmetry_multiplicity
 _atom_site_fract_x
 _atom_site_fract_y
 _atom_site_fract_z
 _atom_site_occupancy
  Pr  Pr0  1  0.50000000  0.23523514  0.20002706  1
  Pr  Pr1  1  0.50000000  0.76476486  0.79997294  1
  Pr  Pr2  1  0.00000000  0.26459734  0.79365373  1
  Pr  Pr3  1  0.00000000  0.73540266  0.20634627  1
  Al  Al4  1  0.50000000  0.50000000  0.00000000  1
  Se  Se5  1  0.00000000  0.00000000  0.00000000  1
  I  I6  1  0.50000000  0.00000000  0.50000000  1
  I  I7  1  0.00000000  0.50000000  0.50000000  1
