# generated using pymatgen
data_Ac3Ir
_symmetry_space_group_name_H-M   'P 1'
_cell_length_a   3.93752700
_cell_length_b   3.99479514
_cell_length_c   10.08808661
_cell_angle_alpha   90.00000000
_cell_angle_beta   90.00000000
_cell_angle_gamma   90.00000000
_symmetry_Int_Tables_number   1
_chemical_formula_structural   Ac3Ir
_chemical_formula_sum   'Ac3 Ir1'
_cell_volume   158.68170558
_cell_formula_units_Z   1
loop_
 _symmetry_equiv_pos_site_id
 _symmetry_equiv_pos_as_xyz
  1  'x, y, z'
loop_
 _atom_site_type_symbol
 _atom_site_label
 _atom_site_symmetry_multiplicity
 _atom_site_fract_x
 _atom_site_fract_y
 _atom_site_fract_z
 _atom_site_occupancy
  Ac  Ac0  1  0.00000000  0.50000000  0.46871295  1
  Ac  Ac1  1  0.50000000  0.50000000  0.10919765  1
  Ac  Ac2  1  0.50000000  0.00000000  0.76748967  1
  Ir  Ir3  1  0.00000000  0.00000000  0.98793273  1
