# generated using pymatgen
data_Ag5Br3
_symmetry_space_group_name_H-M   'P 1'
_cell_length_a   6.13473470
_cell_length_b   6.13473470
_cell_length_c   19.02179034
_cell_angle_alpha   90.00000000
_cell_angle_beta   90.00000000
_cell_angle_gamma   119.99999998
_symmetry_Int_Tables_number   1
_chemical_formula_structural   Ag5Br3
_chemical_formula_sum   'Ag5 Br3'
_cell_volume   619.97416865
_cell_formula_units_Z   1
loop_
 _symmetry_equiv_pos_site_id
 _symmetry_equiv_pos_as_xyz
  1  'x, y, z'
loop_
 _atom_site_type_symbol
 _atom_site_label
 _atom_site_symmetry_multiplicity
 _atom_site_fract_x
 _atom_site_fract_y
 _atom_site_fract_z
 _atom_site_occupancy
  Br  Br0  1  0.33333333  0.66666667  0.61298139  1
  Br  Br1  1  0.66666667  0.33333333  0.61298140  1
  Br  Br2  1  0.00000000  0.00000000  0.43638785  1
  Ag  Ag3  1  0.39661047  0.00000000  0.51151564  1
  Ag  Ag4  1  0.00000000  0.39661777  0.51151845  1
  Ag  Ag5  1  0.60340422  0.60342010  0.51151386  1
  Ag  Ag6  1  0.33333333  0.66666667  0.40155071  1
  Ag  Ag7  1  0.66666667  0.33333333  0.40155071  1
