# generated using pymatgen
data_La3Ho5
_symmetry_space_group_name_H-M   'P 1'
_cell_length_a   5.15835148
_cell_length_b   7.18179620
_cell_length_c   7.18179619
_cell_angle_alpha   91.64035266
_cell_angle_beta   90.00000000
_cell_angle_gamma   90.00000000
_symmetry_Int_Tables_number   1
_chemical_formula_structural   La3Ho5
_chemical_formula_sum   'La3 Ho5'
_cell_volume   265.94943647
_cell_formula_units_Z   1
loop_
 _symmetry_equiv_pos_site_id
 _symmetry_equiv_pos_as_xyz
  1  'x, y, z'
loop_
 _atom_site_type_symbol
 _atom_site_label
 _atom_site_symmetry_multiplicity
 _atom_site_fract_x
 _atom_site_fract_y
 _atom_site_fract_z
 _atom_site_occupancy
  La  La0  1  0.00000000  0.50000000  0.50000000  1
  La  La1  1  0.50000000  0.75423323  0.24576677  1
  La  La2  1  0.50000000  0.24576677  0.75423323  1
  Ho  Ho3  1  0.00000000  0.00000000  0.00000000  1
  Ho  Ho4  1  0.00000000  0.00000000  0.50000000  1
  Ho  Ho5  1  0.00000000  0.50000000  0.00000000  1
  Ho  Ho6  1  0.50000000  0.25032326  0.25032326  1
  Ho  Ho7  1  0.50000000  0.74967674  0.74967674  1
