# generated using pymatgen
data_AcPrY2
_symmetry_space_group_name_H-M   'P 1'
_cell_length_a   11.56856382
_cell_length_b   5.89047710
_cell_length_c   5.89022876
_cell_angle_alpha   59.99578228
_cell_angle_beta   75.25859133
_cell_angle_gamma   59.41050427
_symmetry_Int_Tables_number   1
_chemical_formula_structural   AcPrY2
_chemical_formula_sum   'Ac2 Pr2 Y4'
_cell_volume   299.22256339
_cell_formula_units_Z   2
loop_
 _symmetry_equiv_pos_site_id
 _symmetry_equiv_pos_as_xyz
  1  'x, y, z'
loop_
 _atom_site_type_symbol
 _atom_site_label
 _atom_site_symmetry_multiplicity
 _atom_site_fract_x
 _atom_site_fract_y
 _atom_site_fract_z
 _atom_site_occupancy
  Ac  Ac0  1  0.75001926  0.24992734  0.00007026  1
  Ac  Ac1  1  0.24998062  0.75007254  0.99992970  1
  Pr  Pr2  1  0.74998214  0.58350753  0.33307355  1
  Pr  Pr3  1  0.25001749  0.41649284  0.66692661  1
  Y  Y4  1  0.41696841  0.91653533  0.33310227  1
  Y  Y5  1  0.08304235  0.25048100  0.33308220  1
  Y  Y6  1  0.58301849  0.08347685  0.66689762  1
  Y  Y7  1  0.91696923  0.74950656  0.66691779  1
