# generated using pymatgen
data_UNi3
_symmetry_space_group_name_H-M   'P 1'
_cell_length_a   4.84779281
_cell_length_b   4.84779281
_cell_length_c   8.64449399
_cell_angle_alpha   90.00884274
_cell_angle_beta   106.27939389
_cell_angle_gamma   119.99078462
_symmetry_Int_Tables_number   1
_chemical_formula_structural   UNi3
_chemical_formula_sum   'U3 Ni9'
_cell_volume   166.47760273
_cell_formula_units_Z   3
loop_
 _symmetry_equiv_pos_site_id
 _symmetry_equiv_pos_as_xyz
  1  'x, y, z'
loop_
 _atom_site_type_symbol
 _atom_site_label
 _atom_site_symmetry_multiplicity
 _atom_site_fract_x
 _atom_site_fract_y
 _atom_site_fract_z
 _atom_site_occupancy
  U  U0  1  0.28294441  0.14146108  0.42440549  1
  U  U1  1  0.71705559  0.85853892  0.57559451  1
  U  U2  1  0.00000000  0.00000000  0.00000000  1
  Ni  Ni3  1  0.66555194  0.08308046  0.24825480  1
  Ni  Ni4  1  0.16517435  0.58270286  0.24825480  1
  Ni  Ni5  1  0.66559555  0.58273563  0.24833119  1
  Ni  Ni6  1  0.00000000  0.50000000  0.50000000  1
  Ni  Ni7  1  0.33422990  0.66704246  0.00127237  1
  Ni  Ni8  1  0.66577010  0.33295754  0.99872763  1
  Ni  Ni9  1  0.83482565  0.41729714  0.75174520  1
  Ni  Ni10  1  0.33444806  0.91691954  0.75174520  1
  Ni  Ni11  1  0.33440445  0.41726437  0.75166881  1
