# generated using pymatgen
data_KBaIO6
_symmetry_space_group_name_H-M   'P 1'
_cell_length_a   6.18814050
_cell_length_b   6.18878533
_cell_length_c   5.25246745
_cell_angle_alpha   90.01966992
_cell_angle_beta   89.98685519
_cell_angle_gamma   59.94660958
_symmetry_Int_Tables_number   1
_chemical_formula_structural   KBaIO6
_chemical_formula_sum   'K1 Ba1 I1 O6'
_cell_volume   174.11076045
_cell_formula_units_Z   1
loop_
 _symmetry_equiv_pos_site_id
 _symmetry_equiv_pos_as_xyz
  1  'x, y, z'
loop_
 _atom_site_type_symbol
 _atom_site_label
 _atom_site_symmetry_multiplicity
 _atom_site_fract_x
 _atom_site_fract_y
 _atom_site_fract_z
 _atom_site_occupancy
  K  K0  1  0.66648614  0.66656882  0.49999292  1
  Ba  Ba1  1  0.99975539  0.99985919  0.99998756  1
  I  I2  1  0.33359353  0.33353313  0.49999210  1
  O  O3  1  0.09494116  0.30919162  0.29602466  1
  O  O4  1  0.30922454  0.09503920  0.70411140  1
  O  O5  1  0.59535631  0.31015363  0.70487593  1
  O  O6  1  0.09403978  0.59638286  0.70366498  1
  O  O7  1  0.31007446  0.59531142  0.29505922  1
  O  O8  1  0.59629218  0.09401021  0.29620223  1
