# generated using pymatgen
data_RbLiBe2F8
_symmetry_space_group_name_H-M   'P 1'
_cell_length_a   5.28090234
_cell_length_b   5.28090235
_cell_length_c   7.56212570
_cell_angle_alpha   90.00000000
_cell_angle_beta   90.00000000
_cell_angle_gamma   119.99999993
_symmetry_Int_Tables_number   1
_chemical_formula_structural   RbLiBe2F8
_chemical_formula_sum   'Rb1 Li1 Be2 F8'
_cell_volume   182.63785461
_cell_formula_units_Z   1
loop_
 _symmetry_equiv_pos_site_id
 _symmetry_equiv_pos_as_xyz
  1  'x, y, z'
loop_
 _atom_site_type_symbol
 _atom_site_label
 _atom_site_symmetry_multiplicity
 _atom_site_fract_x
 _atom_site_fract_y
 _atom_site_fract_z
 _atom_site_occupancy
  Rb  Rb0  1  0.00000000  0.00000000  0.00000000  1
  Li  Li1  1  0.00000000  0.00000000  0.50000000  1
  Be  Be2  1  0.66666667  0.33333333  0.27607845  1
  Be  Be3  1  0.33333333  0.66666667  0.72392155  1
  F  F4  1  0.33333333  0.66666667  0.92963854  1
  F  F5  1  0.34712985  0.17976629  0.34190914  1
  F  F6  1  0.82023371  0.16736356  0.34190914  1
  F  F7  1  0.66666667  0.33333333  0.07036146  1
  F  F8  1  0.17976629  0.83263644  0.65809086  1
  F  F9  1  0.65287015  0.82023371  0.65809086  1
  F  F10  1  0.16736356  0.34712985  0.65809086  1
  F  F11  1  0.83263644  0.65287015  0.34190914  1
