# generated using pymatgen
data_NaCa2BiBr8
_symmetry_space_group_name_H-M   'P 1'
_cell_length_a   6.98956810
_cell_length_b   6.68431957
_cell_length_c   8.83627298
_cell_angle_alpha   90.00199094
_cell_angle_beta   89.99882922
_cell_angle_gamma   90.13265395
_symmetry_Int_Tables_number   1
_chemical_formula_structural   NaCa2BiBr8
_chemical_formula_sum   'Na1 Ca2 Bi1 Br8'
_cell_volume   412.83404569
_cell_formula_units_Z   1
loop_
 _symmetry_equiv_pos_site_id
 _symmetry_equiv_pos_as_xyz
  1  'x, y, z'
loop_
 _atom_site_type_symbol
 _atom_site_label
 _atom_site_symmetry_multiplicity
 _atom_site_fract_x
 _atom_site_fract_y
 _atom_site_fract_z
 _atom_site_occupancy
  Na  Na0  1  0.00000000  0.00000000  0.50000000  1
  Ca  Ca1  1  0.50002251  0.49999278  0.74111869  1
  Ca  Ca2  1  0.49997749  0.50000722  0.25888131  1
  Bi  Bi3  1  0.00000000  0.00000000  0.00000000  1
  Br  Br4  1  0.16329125  0.76486705  0.24007090  1
  Br  Br5  1  0.66106155  0.73716092  0.00000981  1
  Br  Br6  1  0.83668878  0.23514607  0.24007798  1
  Br  Br7  1  0.83670875  0.23513295  0.75992910  1
  Br  Br8  1  0.33893845  0.26283908  0.99999019  1
  Br  Br9  1  0.16331122  0.76485393  0.75992202  1
  Br  Br10  1  0.66429584  0.72683574  0.49999871  1
  Br  Br11  1  0.33570416  0.27316426  0.50000129  1
