# generated using pymatgen
data_LaIn3Ir
_symmetry_space_group_name_H-M   'P 1'
_cell_length_a   4.50266168
_cell_length_b   9.20236715
_cell_length_c   11.83438419
_cell_angle_alpha   90.00000000
_cell_angle_beta   90.00000000
_cell_angle_gamma   90.00000000
_symmetry_Int_Tables_number   1
_chemical_formula_structural   LaIn3Ir
_chemical_formula_sum   'La4 In12 Ir4'
_cell_volume   490.35943592
_cell_formula_units_Z   4
loop_
 _symmetry_equiv_pos_site_id
 _symmetry_equiv_pos_as_xyz
  1  'x, y, z'
loop_
 _atom_site_type_symbol
 _atom_site_label
 _atom_site_symmetry_multiplicity
 _atom_site_fract_x
 _atom_site_fract_y
 _atom_site_fract_z
 _atom_site_occupancy
  La  La0  1  0.75000000  0.79355032  0.00344513  1
  La  La1  1  0.25000000  0.70644968  0.50344513  1
  La  La2  1  0.75000000  0.29355032  0.49655487  1
  La  La3  1  0.25000000  0.20644968  0.99655487  1
  In  In4  1  0.25000000  0.55303018  0.08754512  1
  In  In5  1  0.75000000  0.44696982  0.91245488  1
  In  In6  1  0.25000000  0.05303018  0.41245488  1
  In  In7  1  0.75000000  0.94696982  0.58754512  1
  In  In8  1  0.25000000  0.40334926  0.70580223  1
  In  In9  1  0.75000000  0.09665074  0.20580223  1
  In  In10  1  0.25000000  0.90334926  0.79419777  1
  In  In11  1  0.75000000  0.65172512  0.71113777  1
  In  In12  1  0.25000000  0.34827488  0.28886223  1
  In  In13  1  0.75000000  0.15172512  0.78886223  1
  In  In14  1  0.75000000  0.59665074  0.29419777  1
  In  In15  1  0.25000000  0.84827488  0.21113777  1
  Ir  Ir16  1  0.25000000  0.12305543  0.64037833  1
  Ir  Ir17  1  0.25000000  0.62305543  0.85962167  1
  Ir  Ir18  1  0.75000000  0.37694457  0.14037833  1
  Ir  Ir19  1  0.75000000  0.87694457  0.35962167  1
