# generated using pymatgen
data_EuY2Pd
_symmetry_space_group_name_H-M   'P 1'
_cell_length_a   3.58941456
_cell_length_b   3.58941456
_cell_length_c   9.01688862
_cell_angle_alpha   90.00000000
_cell_angle_beta   90.00000000
_cell_angle_gamma   90.00000000
_symmetry_Int_Tables_number   1
_chemical_formula_structural   EuY2Pd
_chemical_formula_sum   'Eu1 Y2 Pd1'
_cell_volume   116.17266319
_cell_formula_units_Z   1
loop_
 _symmetry_equiv_pos_site_id
 _symmetry_equiv_pos_as_xyz
  1  'x, y, z'
loop_
 _atom_site_type_symbol
 _atom_site_label
 _atom_site_symmetry_multiplicity
 _atom_site_fract_x
 _atom_site_fract_y
 _atom_site_fract_z
 _atom_site_occupancy
  Eu  Eu0  1  0.50000000  0.50000000  0.50000000  1
  Y  Y1  1  0.00000000  0.00000000  0.81546748  1
  Y  Y2  1  0.00000000  0.00000000  0.18453252  1
  Pd  Pd3  1  0.50000000  0.50000000  0.00000000  1
