# generated using pymatgen
data_Th4AsP2Ir
_symmetry_space_group_name_H-M   'P 1'
_cell_length_a   4.12240624
_cell_length_b   7.28316726
_cell_length_c   7.30092238
_cell_angle_alpha   70.64687503
_cell_angle_beta   89.99971872
_cell_angle_gamma   89.99968287
_symmetry_Int_Tables_number   1
_chemical_formula_structural   Th4AsP2Ir
_chemical_formula_sum   'Th4 As1 P2 Ir1'
_cell_volume   206.81783426
_cell_formula_units_Z   1
loop_
 _symmetry_equiv_pos_site_id
 _symmetry_equiv_pos_as_xyz
  1  'x, y, z'
loop_
 _atom_site_type_symbol
 _atom_site_label
 _atom_site_symmetry_multiplicity
 _atom_site_fract_x
 _atom_site_fract_y
 _atom_site_fract_z
 _atom_site_occupancy
  Th  Th0  1  0.00000300  0.74481364  0.76063390  1
  Th  Th1  1  0.99999600  0.25518786  0.23936460  1
  Th  Th2  1  0.50000200  0.75650022  0.24379787  1
  Th  Th3  1  0.49999700  0.24350078  0.75620113  1
  As  As4  1  0.00000050  0.49999400  0.50000450  1
  P  P5  1  -0.00000000  0.00000100  0.99999900  1
  P  P6  1  0.50000000  0.00000100  0.49999900  1
  Ir  Ir7  1  0.49999900  0.50000150  0.99999950  1
