# generated using pymatgen
data_Ca2TiTlO6
_symmetry_space_group_name_H-M   'P 1'
_cell_length_a   5.37354454
_cell_length_b   5.29987654
_cell_length_c   5.29987654
_cell_angle_alpha   90.00000000
_cell_angle_beta   90.00000000
_cell_angle_gamma   90.00000000
_symmetry_Int_Tables_number   1
_chemical_formula_structural   Ca2TiTlO6
_chemical_formula_sum   'Ca2 Ti1 Tl1 O6'
_cell_volume   150.93583398
_cell_formula_units_Z   1
loop_
 _symmetry_equiv_pos_site_id
 _symmetry_equiv_pos_as_xyz
  1  'x, y, z'
loop_
 _atom_site_type_symbol
 _atom_site_label
 _atom_site_symmetry_multiplicity
 _atom_site_fract_x
 _atom_site_fract_y
 _atom_site_fract_z
 _atom_site_occupancy
  Ca  Ca0  1  0.00355104  0.50000000  0.00000000  1
  Ca  Ca1  1  0.00355104  0.00000000  0.50000000  1
  Ti  Ti2  1  0.58708080  0.00000000  0.00000000  1
  Tl  Tl3  1  0.53406790  0.50000000  0.50000000  1
  O  O4  1  0.72986834  0.23601807  0.23601807  1
  O  O5  1  0.72986834  0.23601807  0.76398193  1
  O  O6  1  0.14677837  0.50000000  0.50000000  1
  O  O7  1  0.25225749  0.00000000  0.00000000  1
  O  O8  1  0.72986834  0.76398193  0.76398193  1
  O  O9  1  0.72986834  0.76398193  0.23601807  1
