# generated using pymatgen
data_Zr(BRh4)2
_symmetry_space_group_name_H-M   'P 1'
_cell_length_a   4.16123105
_cell_length_b   6.26829613
_cell_length_c   6.26829613
_cell_angle_alpha   108.28857072
_cell_angle_beta   98.59800220
_cell_angle_gamma   98.59800216
_symmetry_Int_Tables_number   1
_chemical_formula_structural   Zr(BRh4)2
_chemical_formula_sum   'Zr1 B2 Rh8'
_cell_volume   150.10077200
_cell_formula_units_Z   1
loop_
 _symmetry_equiv_pos_site_id
 _symmetry_equiv_pos_as_xyz
  1  'x, y, z'
loop_
 _atom_site_type_symbol
 _atom_site_label
 _atom_site_symmetry_multiplicity
 _atom_site_fract_x
 _atom_site_fract_y
 _atom_site_fract_z
 _atom_site_occupancy
  Zr  Zr0  1  0.50000000  0.00000000  0.00000000  1
  B  B1  1  -0.00000000  0.32156161  0.67843839  1
  B  B2  1  0.00000000  0.67843839  0.32156161  1
  Rh  Rh3  1  0.91227330  0.94328422  0.67383767  1
  Rh  Rh4  1  0.91227330  0.67383767  0.94328422  1
  Rh  Rh5  1  0.29898517  0.61569064  0.61569064  1
  Rh  Rh6  1  0.50000000  0.73400941  0.26599059  1
  Rh  Rh7  1  0.50000000  0.26599059  0.73400941  1
  Rh  Rh8  1  0.70101483  0.38430936  0.38430936  1
  Rh  Rh9  1  0.08772670  0.32616233  0.05671578  1
  Rh  Rh10  1  0.08772670  0.05671578  0.32616233  1
