# generated using pymatgen
data_NdHfRu
_symmetry_space_group_name_H-M   'P 1'
_cell_length_a   4.50366168
_cell_length_b   7.09887436
_cell_length_c   12.97643386
_cell_angle_alpha   91.66337583
_cell_angle_beta   90.00000000
_cell_angle_gamma   90.00000000
_symmetry_Int_Tables_number   1
_chemical_formula_structural   NdHfRu
_chemical_formula_sum   'Nd6 Hf6 Ru6'
_cell_volume   414.69382027
_cell_formula_units_Z   6
loop_
 _symmetry_equiv_pos_site_id
 _symmetry_equiv_pos_as_xyz
  1  'x, y, z'
loop_
 _atom_site_type_symbol
 _atom_site_label
 _atom_site_symmetry_multiplicity
 _atom_site_fract_x
 _atom_site_fract_y
 _atom_site_fract_z
 _atom_site_occupancy
  Nd  Nd0  1  0.75000000  0.50816821  0.37657779  1
  Nd  Nd1  1  0.25000000  0.01614796  0.70982849  1
  Nd  Nd2  1  0.75000000  0.98385204  0.29017151  1
  Nd  Nd3  1  0.75000000  0.61540121  0.08448786  1
  Nd  Nd4  1  0.25000000  0.49183179  0.62342221  1
  Nd  Nd5  1  0.25000000  0.38459879  0.91551214  1
  Ru  Ru6  1  0.25000000  0.81216694  0.89087721  1
  Ru  Ru7  1  0.75000000  0.30052897  0.76146721  1
  Ru  Ru8  1  0.75000000  0.77864450  0.56455471  1
  Ru  Ru9  1  0.75000000  0.18783306  0.10912279  1
  Ru  Ru10  1  0.25000000  0.22135550  0.43544529  1
  Ru  Ru11  1  0.25000000  0.69947103  0.23853279  1
  Hf  Hf12  1  0.25000000  0.96049669  0.08350911  1
  Hf  Hf13  1  0.25000000  0.85645412  0.45861076  1
  Hf  Hf14  1  0.75000000  0.66474320  0.78919012  1
  Hf  Hf15  1  0.75000000  0.14354588  0.54138924  1
  Hf  Hf16  1  0.25000000  0.33525680  0.21080988  1
  Hf  Hf17  1  0.75000000  0.03950331  0.91649089  1
