# generated using pymatgen
data_PaRhPb
_symmetry_space_group_name_H-M   'P 1'
_cell_length_a   3.51508788
_cell_length_b   3.51508788
_cell_length_c   13.27261201
_cell_angle_alpha   90.00000000
_cell_angle_beta   90.00000000
_cell_angle_gamma   120.00000001
_symmetry_Int_Tables_number   1
_chemical_formula_structural   PaRhPb
_chemical_formula_sum   'Pa2 Rh2 Pb2'
_cell_volume   142.02323643
_cell_formula_units_Z   2
loop_
 _symmetry_equiv_pos_site_id
 _symmetry_equiv_pos_as_xyz
  1  'x, y, z'
loop_
 _atom_site_type_symbol
 _atom_site_label
 _atom_site_symmetry_multiplicity
 _atom_site_fract_x
 _atom_site_fract_y
 _atom_site_fract_z
 _atom_site_occupancy
  Pa  Pa0  1  0.00000000  0.00000000  0.00000000  1
  Pa  Pa1  1  0.33333300  0.66666700  0.50000000  1
  Pb  Pb2  1  0.00000000  0.00000000  0.29582025  1
  Pb  Pb3  1  0.00000000  0.00000000  0.70417975  1
  Rh  Rh4  1  0.33333300  0.66666700  0.86374317  1
  Rh  Rh5  1  0.33333300  0.66666700  0.13625683  1
