# generated using pymatgen
data_KTl
_symmetry_space_group_name_H-M   'P 1'
_cell_length_a   11.87472770
_cell_length_b   11.87472770
_cell_length_c   11.87472770
_cell_angle_alpha   20.22228060
_cell_angle_beta   20.22228059
_cell_angle_gamma   20.22228057
_symmetry_Int_Tables_number   1
_chemical_formula_structural   KTl
_chemical_formula_sum   'K2 Tl2'
_cell_volume   175.06185853
_cell_formula_units_Z   2
loop_
 _symmetry_equiv_pos_site_id
 _symmetry_equiv_pos_as_xyz
  1  'x, y, z'
loop_
 _atom_site_type_symbol
 _atom_site_label
 _atom_site_symmetry_multiplicity
 _atom_site_fract_x
 _atom_site_fract_y
 _atom_site_fract_z
 _atom_site_occupancy
  K  K0  1  0.98379110  0.98379110  0.98379110  1
  K  K1  1  0.76620890  0.76620890  0.76620890  1
  Tl  Tl2  1  0.50956255  0.50956255  0.50956255  1
  Tl  Tl3  1  0.24043745  0.24043745  0.24043745  1
