# generated using pymatgen
data_LiTh(GaPt2)2
_symmetry_space_group_name_H-M   'P 1'
_cell_length_a   4.28802077
_cell_length_b   4.28802077
_cell_length_c   8.99279191
_cell_angle_alpha   76.20702881
_cell_angle_beta   76.20702880
_cell_angle_gamma   60.00000007
_symmetry_Int_Tables_number   1
_chemical_formula_structural   LiTh(GaPt2)2
_chemical_formula_sum   'Li1 Th1 Ga2 Pt4'
_cell_volume   137.66534150
_cell_formula_units_Z   1
loop_
 _symmetry_equiv_pos_site_id
 _symmetry_equiv_pos_as_xyz
  1  'x, y, z'
loop_
 _atom_site_type_symbol
 _atom_site_label
 _atom_site_symmetry_multiplicity
 _atom_site_fract_x
 _atom_site_fract_y
 _atom_site_fract_z
 _atom_site_occupancy
  Li  Li0  1  0.50000000  0.50000000  0.50000000  1
  Th  Th1  1  0.00000000  0.00000000  0.00000000  1
  Ga  Ga2  1  0.76462570  0.76462570  0.70612291  1
  Ga  Ga3  1  0.23537430  0.23537430  0.29387709  1
  Pt  Pt4  1  0.40128067  0.40128067  0.79615799  1
  Pt  Pt5  1  0.86692667  0.86692667  0.39921999  1
  Pt  Pt6  1  0.13307333  0.13307333  0.60078001  1
  Pt  Pt7  1  0.59871933  0.59871933  0.20384201  1
