# generated using pymatgen
data_PmCd3Ag
_symmetry_space_group_name_H-M   'P 1'
_cell_length_a   6.74452599
_cell_length_b   5.84240147
_cell_length_c   5.96978529
_cell_angle_alpha   90.00000000
_cell_angle_beta   90.57250286
_cell_angle_gamma   90.00000000
_symmetry_Int_Tables_number   1
_chemical_formula_structural   PmCd3Ag
_chemical_formula_sum   'Pm2 Cd6 Ag2'
_cell_volume   235.22304118
_cell_formula_units_Z   2
loop_
 _symmetry_equiv_pos_site_id
 _symmetry_equiv_pos_as_xyz
  1  'x, y, z'
loop_
 _atom_site_type_symbol
 _atom_site_label
 _atom_site_symmetry_multiplicity
 _atom_site_fract_x
 _atom_site_fract_y
 _atom_site_fract_z
 _atom_site_occupancy
  Pm  Pm0  1  0.64767311  0.75000000  0.34664536  1
  Pm  Pm1  1  0.35232689  0.25000000  0.65335464  1
  Cd  Cd2  1  0.82005925  0.00178340  0.85841242  1
  Cd  Cd3  1  0.17994075  0.99821660  0.14158758  1
  Cd  Cd4  1  0.82005925  0.49821660  0.85841242  1
  Cd  Cd5  1  0.17994075  0.50178340  0.14158758  1
  Cd  Cd6  1  0.11382667  0.75000000  0.56987535  1
  Cd  Cd7  1  0.88617333  0.25000000  0.43012465  1
  Ag  Ag8  1  0.45405239  0.75000000  0.84982876  1
  Ag  Ag9  1  0.54594761  0.25000000  0.15017124  1
