# generated using pymatgen
data_Pm2CuNi4Ge3
_symmetry_space_group_name_H-M   'P 1'
_cell_length_a   4.14021512
_cell_length_b   4.14021512
_cell_length_c   9.61021989
_cell_angle_alpha   90.00000000
_cell_angle_beta   90.00000000
_cell_angle_gamma   90.00000000
_symmetry_Int_Tables_number   1
_chemical_formula_structural   Pm2CuNi4Ge3
_chemical_formula_sum   'Pm2 Cu1 Ni4 Ge3'
_cell_volume   164.73244293
_cell_formula_units_Z   1
loop_
 _symmetry_equiv_pos_site_id
 _symmetry_equiv_pos_as_xyz
  1  'x, y, z'
loop_
 _atom_site_type_symbol
 _atom_site_label
 _atom_site_symmetry_multiplicity
 _atom_site_fract_x
 _atom_site_fract_y
 _atom_site_fract_z
 _atom_site_occupancy
  Pm  Pm0  1  0.50000000  0.00000000  0.25382625  1
  Pm  Pm1  1  0.00000000  0.50000000  0.74617375  1
  Cu  Cu2  1  0.50000000  0.50000000  0.50000000  1
  Ni  Ni3  1  0.50000000  0.50000000  0.00000000  1
  Ni  Ni4  1  0.00000000  0.00000000  0.00000000  1
  Ni  Ni5  1  0.50000000  0.00000000  0.62773723  1
  Ni  Ni6  1  0.00000000  0.50000000  0.37226277  1
  Ge  Ge7  1  0.00000000  0.00000000  0.50000000  1
  Ge  Ge8  1  0.50000000  0.00000000  0.87261094  1
  Ge  Ge9  1  0.00000000  0.50000000  0.12738906  1
