# generated using pymatgen
data_MgTaAl2
_symmetry_space_group_name_H-M   'P 1'
_cell_length_a   2.85020742
_cell_length_b   2.85020742
_cell_length_c   8.84602277
_cell_angle_alpha   90.00000000
_cell_angle_beta   90.00000000
_cell_angle_gamma   90.00000000
_symmetry_Int_Tables_number   1
_chemical_formula_structural   MgTaAl2
_chemical_formula_sum   'Mg1 Ta1 Al2'
_cell_volume   71.86227893
_cell_formula_units_Z   1
loop_
 _symmetry_equiv_pos_site_id
 _symmetry_equiv_pos_as_xyz
  1  'x, y, z'
loop_
 _atom_site_type_symbol
 _atom_site_label
 _atom_site_symmetry_multiplicity
 _atom_site_fract_x
 _atom_site_fract_y
 _atom_site_fract_z
 _atom_site_occupancy
  Al  Al0  1  0.00000000  0.00000000  0.99607916  1
  Al  Al1  1  0.50000000  0.50000000  0.23399822  1
  Mg  Mg2  1  0.00000000  0.00000000  0.50204027  1
  Ta  Ta3  1  0.50000000  0.50000000  0.76788235  1
