# generated using pymatgen
data_NaTi8Cu6BiO24
_symmetry_space_group_name_H-M   'P 1'
_cell_length_a   7.46698306
_cell_length_b   7.46698306
_cell_length_c   7.46698306
_cell_angle_alpha   90.00000000
_cell_angle_beta   90.00000000
_cell_angle_gamma   90.00000000
_symmetry_Int_Tables_number   1
_chemical_formula_structural   NaTi8Cu6BiO24
_chemical_formula_sum   'Na1 Ti8 Cu6 Bi1 O24'
_cell_volume   416.32788304
_cell_formula_units_Z   1
loop_
 _symmetry_equiv_pos_site_id
 _symmetry_equiv_pos_as_xyz
  1  'x, y, z'
loop_
 _atom_site_type_symbol
 _atom_site_label
 _atom_site_symmetry_multiplicity
 _atom_site_fract_x
 _atom_site_fract_y
 _atom_site_fract_z
 _atom_site_occupancy
  Na  Na0  1  0.00000000  0.00000000  0.00000000  1
  Ti  Ti1  1  0.24594034  0.24594034  0.24594034  1
  Ti  Ti2  1  0.75405966  0.75405966  0.75405966  1
  Ti  Ti3  1  0.75405966  0.75405966  0.24594034  1
  Ti  Ti4  1  0.75405966  0.24594034  0.75405966  1
  Ti  Ti5  1  0.24594034  0.24594034  0.75405966  1
  Ti  Ti6  1  0.24594034  0.75405966  0.24594034  1
  Ti  Ti7  1  0.24594034  0.75405966  0.75405966  1
  Ti  Ti8  1  0.75405966  0.24594034  0.24594034  1
  Cu  Cu9  1  0.00000000  0.50000000  0.50000000  1
  Cu  Cu10  1  0.50000000  0.00000000  0.50000000  1
  Cu  Cu11  1  0.50000000  0.50000000  0.00000000  1
  Cu  Cu12  1  0.50000000  0.00000000  0.00000000  1
  Cu  Cu13  1  0.00000000  0.50000000  0.00000000  1
  Cu  Cu14  1  0.00000000  0.00000000  0.50000000  1
  Bi  Bi15  1  0.50000000  0.50000000  0.50000000  1
  O  O16  1  0.00000000  0.30647614  0.17880810  1
  O  O17  1  0.00000000  0.69352386  0.82119190  1
  O  O18  1  0.00000000  0.69352386  0.17880810  1
  O  O19  1  0.00000000  0.30647614  0.82119190  1
  O  O20  1  0.17880810  0.00000000  0.30647614  1
  O  O21  1  0.82119190  0.00000000  0.69352386  1
  O  O22  1  0.17880810  0.00000000  0.69352386  1
  O  O23  1  0.82119190  0.00000000  0.30647614  1
  O  O24  1  0.30647614  0.17880810  0.00000000  1
  O  O25  1  0.69352386  0.82119190  0.00000000  1
  O  O26  1  0.30647614  0.82119190  0.00000000  1
  O  O27  1  0.69352386  0.17880810  0.00000000  1
  O  O28  1  0.50000000  0.19743956  0.32241593  1
  O  O29  1  0.50000000  0.80256044  0.67758407  1
  O  O30  1  0.50000000  0.80256044  0.32241593  1
  O  O31  1  0.50000000  0.19743956  0.67758407  1
  O  O32  1  0.32241593  0.50000000  0.19743956  1
  O  O33  1  0.67758407  0.50000000  0.80256044  1
  O  O34  1  0.32241593  0.50000000  0.80256044  1
  O  O35  1  0.67758407  0.50000000  0.19743956  1
  O  O36  1  0.19743956  0.32241593  0.50000000  1
  O  O37  1  0.80256044  0.67758407  0.50000000  1
  O  O38  1  0.19743956  0.67758407  0.50000000  1
  O  O39  1  0.80256044  0.32241593  0.50000000  1
