# generated using pymatgen
data_TiBiSe3
_symmetry_space_group_name_H-M   'P 1'
_cell_length_a   3.62127947
_cell_length_b   5.04002697
_cell_length_c   6.97591470
_cell_angle_alpha   90.00000000
_cell_angle_beta   102.66136505
_cell_angle_gamma   90.00000000
_symmetry_Int_Tables_number   1
_chemical_formula_structural   TiBiSe3
_chemical_formula_sum   'Ti1 Bi1 Se3'
_cell_volume   124.22374257
_cell_formula_units_Z   1
loop_
 _symmetry_equiv_pos_site_id
 _symmetry_equiv_pos_as_xyz
  1  'x, y, z'
loop_
 _atom_site_type_symbol
 _atom_site_label
 _atom_site_symmetry_multiplicity
 _atom_site_fract_x
 _atom_site_fract_y
 _atom_site_fract_z
 _atom_site_occupancy
  Bi  Bi0  1  0.13842594  0.50000000  0.07174326  1
  Se  Se1  1  0.09117319  0.00000000  0.35188355  1
  Se  Se2  1  0.31633870  0.00000000  0.89322111  1
  Se  Se3  1  0.73087879  0.50000000  0.66211408  1
  Ti  Ti4  1  0.68683338  0.00000000  0.61428800  1
