# generated using pymatgen
data_Sr2AlSi3Pd4
_symmetry_space_group_name_H-M   'P 1'
_cell_length_a   4.31655131
_cell_length_b   4.31655131
_cell_length_c   10.26967808
_cell_angle_alpha   90.00000000
_cell_angle_beta   90.00000000
_cell_angle_gamma   90.00000000
_symmetry_Int_Tables_number   1
_chemical_formula_structural   Sr2AlSi3Pd4
_chemical_formula_sum   'Sr2 Al1 Si3 Pd4'
_cell_volume   191.35096001
_cell_formula_units_Z   1
loop_
 _symmetry_equiv_pos_site_id
 _symmetry_equiv_pos_as_xyz
  1  'x, y, z'
loop_
 _atom_site_type_symbol
 _atom_site_label
 _atom_site_symmetry_multiplicity
 _atom_site_fract_x
 _atom_site_fract_y
 _atom_site_fract_z
 _atom_site_occupancy
  Sr  Sr0  1  0.50000000  0.00000000  0.24859859  1
  Sr  Sr1  1  0.00000000  0.50000000  0.75140141  1
  Al  Al2  1  0.50000000  0.50000000  0.50000000  1
  Si  Si3  1  0.00000000  0.00000000  0.50000000  1
  Si  Si4  1  0.50000000  0.00000000  0.87820024  1
  Si  Si5  1  0.00000000  0.50000000  0.12179976  1
  Pd  Pd6  1  0.50000000  0.50000000  0.00000000  1
  Pd  Pd7  1  0.00000000  0.00000000  0.00000000  1
  Pd  Pd8  1  0.50000000  0.00000000  0.63182063  1
  Pd  Pd9  1  0.00000000  0.50000000  0.36817937  1
