# generated using pymatgen
data_La5Ag2Rh
_symmetry_space_group_name_H-M   'P 1'
_cell_length_a   4.99652231
_cell_length_b   8.00558782
_cell_length_c   12.04604147
_cell_angle_alpha   89.99999582
_cell_angle_beta   90.00000000
_cell_angle_gamma   90.00000000
_symmetry_Int_Tables_number   1
_chemical_formula_structural   La5Ag2Rh
_chemical_formula_sum   'La10 Ag4 Rh2'
_cell_volume   481.84284109
_cell_formula_units_Z   2
loop_
 _symmetry_equiv_pos_site_id
 _symmetry_equiv_pos_as_xyz
  1  'x, y, z'
loop_
 _atom_site_type_symbol
 _atom_site_label
 _atom_site_symmetry_multiplicity
 _atom_site_fract_x
 _atom_site_fract_y
 _atom_site_fract_z
 _atom_site_occupancy
  La  La0  1  0.00000000  0.00000000  0.50000000  1
  La  La1  1  0.00000000  0.50000000  0.00000000  1
  La  La2  1  0.00000000  0.85496538  0.20243501  1
  La  La3  1  0.00000000  0.14503462  0.79756499  1
  La  La4  1  0.00000000  0.64503462  0.70243501  1
  La  La5  1  0.00000000  0.35496538  0.29756499  1
  La  La6  1  0.50000000  0.68677068  0.42341182  1
  La  La7  1  0.50000000  0.31322932  0.57658818  1
  La  La8  1  0.50000000  0.81322932  0.92341182  1
  La  La9  1  0.50000000  0.18677068  0.07658818  1
  Ag  Ag10  1  0.50000000  0.58170795  0.16343107  1
  Ag  Ag11  1  0.50000000  0.41829205  0.83656893  1
  Ag  Ag12  1  0.50000000  0.91829205  0.66343107  1
  Ag  Ag13  1  0.50000000  0.08170795  0.33656893  1
  Rh  Rh14  1  0.00000000  0.50000000  0.50000000  1
  Rh  Rh15  1  0.00000000  0.00000000  0.00000000  1
