# generated using pymatgen
data_Zr2CoH4
_symmetry_space_group_name_H-M   'P 1'
_cell_length_a   5.41663845
_cell_length_b   4.11959682
_cell_length_c   6.63823360
_cell_angle_alpha   90.00000000
_cell_angle_beta   114.13039595
_cell_angle_gamma   90.00000000
_symmetry_Int_Tables_number   1
_chemical_formula_structural   Zr2CoH4
_chemical_formula_sum   'Zr4 Co2 H8'
_cell_volume   135.18417370
_cell_formula_units_Z   2
loop_
 _symmetry_equiv_pos_site_id
 _symmetry_equiv_pos_as_xyz
  1  'x, y, z'
loop_
 _atom_site_type_symbol
 _atom_site_label
 _atom_site_symmetry_multiplicity
 _atom_site_fract_x
 _atom_site_fract_y
 _atom_site_fract_z
 _atom_site_occupancy
  Zr  Zr0  1  0.79352770  0.75000000  0.07272397  1
  Zr  Zr1  1  0.20647230  0.25000000  0.92727603  1
  Zr  Zr2  1  0.23019218  0.25000000  0.44066664  1
  Zr  Zr3  1  0.76980782  0.75000000  0.55933336  1
  Co  Co4  1  0.33339056  0.75000000  0.20280168  1
  Co  Co5  1  0.66660944  0.25000000  0.79719832  1
  H  H6  1  0.56187296  0.48298557  0.24235594  1
  H  H7  1  0.10865234  0.75000000  0.93432573  1
  H  H8  1  0.89134766  0.25000000  0.06567427  1
  H  H9  1  0.56187296  0.01701443  0.24235594  1
  H  H10  1  0.96866769  0.25000000  0.59507376  1
  H  H11  1  0.43812704  0.98298557  0.75764406  1
  H  H12  1  0.43812704  0.51701443  0.75764406  1
  H  H13  1  0.03133231  0.75000000  0.40492624  1
