# generated using pymatgen
data_AsW2Au
_symmetry_space_group_name_H-M   'P 1'
_cell_length_a   5.32139568
_cell_length_b   5.32139567
_cell_length_c   4.62459991
_cell_angle_alpha   64.31315838
_cell_angle_beta   64.31315837
_cell_angle_gamma   34.49612075
_symmetry_Int_Tables_number   1
_chemical_formula_structural   AsW2Au
_chemical_formula_sum   'As1 W2 Au1'
_cell_volume   66.08809294
_cell_formula_units_Z   1
loop_
 _symmetry_equiv_pos_site_id
 _symmetry_equiv_pos_as_xyz
  1  'x, y, z'
loop_
 _atom_site_type_symbol
 _atom_site_label
 _atom_site_symmetry_multiplicity
 _atom_site_fract_x
 _atom_site_fract_y
 _atom_site_fract_z
 _atom_site_occupancy
  As  As0  1  0.75000000  0.75000000  0.75000000  1
  Au  Au1  1  0.25000000  0.25000000  0.25000000  1
  W  W2  1  0.02720811  0.02720811  0.97357841  1
  W  W3  1  0.47279189  0.47279189  0.52642159  1
