# generated using pymatgen
data_TbErAl
_symmetry_space_group_name_H-M   'P 1'
_cell_length_a   4.71404775
_cell_length_b   4.71404775
_cell_length_c   7.47360399
_cell_angle_alpha   90.00000000
_cell_angle_beta   90.00000000
_cell_angle_gamma   90.00000000
_symmetry_Int_Tables_number   1
_chemical_formula_structural   TbErAl
_chemical_formula_sum   'Tb2 Er2 Al2'
_cell_volume   166.08026779
_cell_formula_units_Z   2
loop_
 _symmetry_equiv_pos_site_id
 _symmetry_equiv_pos_as_xyz
  1  'x, y, z'
loop_
 _atom_site_type_symbol
 _atom_site_label
 _atom_site_symmetry_multiplicity
 _atom_site_fract_x
 _atom_site_fract_y
 _atom_site_fract_z
 _atom_site_occupancy
  Er  Er0  1  0.00000000  0.50000000  0.74533418  1
  Er  Er1  1  0.50000000  0.00000000  0.25466582  1
  Al  Al2  1  0.50000000  0.50000000  0.00000000  1
  Al  Al3  1  0.00000000  0.00000000  0.00000000  1
  Tb  Tb4  1  0.50000000  0.00000000  0.72480921  1
  Tb  Tb5  1  0.00000000  0.50000000  0.27519079  1
