# generated using pymatgen
data_La2Al5Pd
_symmetry_space_group_name_H-M   'P 1'
_cell_length_a   6.48930511
_cell_length_b   6.48930511
_cell_length_c   6.48930511
_cell_angle_alpha   86.15851008
_cell_angle_beta   122.24212111
_cell_angle_gamma   122.24212120
_symmetry_Int_Tables_number   1
_chemical_formula_structural   La2Al5Pd
_chemical_formula_sum   'La2 Al5 Pd1'
_cell_volume   186.22774054
_cell_formula_units_Z   1
loop_
 _symmetry_equiv_pos_site_id
 _symmetry_equiv_pos_as_xyz
  1  'x, y, z'
loop_
 _atom_site_type_symbol
 _atom_site_label
 _atom_site_symmetry_multiplicity
 _atom_site_fract_x
 _atom_site_fract_y
 _atom_site_fract_z
 _atom_site_occupancy
  La  La0  1  0.50000000  0.24001785  0.74001785  1
  La  La1  1  0.50000000  0.74001785  0.24001785  1
  Al  Al2  1  0.43602686  0.70588180  0.70588180  1
  Al  Al3  1  0.00000000  0.70588180  0.26985494  1
  Al  Al4  1  0.00000000  0.26985494  0.70588180  1
  Al  Al5  1  0.56397314  0.26985494  0.26985494  1
  Al  Al6  1  1.00000000  0.27639617  0.27639617  1
  Pd  Pd7  1  0.00000000  0.01415965  0.01415965  1
