# generated using pymatgen
data_Ho5PaS6
_symmetry_space_group_name_H-M   'P 1'
_cell_length_a   6.72953145
_cell_length_b   6.72638312
_cell_length_c   6.73173459
_cell_angle_alpha   60.02629038
_cell_angle_beta   80.35542597
_cell_angle_gamma   70.40689529
_symmetry_Int_Tables_number   1
_chemical_formula_structural   Ho5PaS6
_chemical_formula_sum   'Ho5 Pa1 S6'
_cell_volume   248.67666424
_cell_formula_units_Z   1
loop_
 _symmetry_equiv_pos_site_id
 _symmetry_equiv_pos_as_xyz
  1  'x, y, z'
loop_
 _atom_site_type_symbol
 _atom_site_label
 _atom_site_symmetry_multiplicity
 _atom_site_fract_x
 _atom_site_fract_y
 _atom_site_fract_z
 _atom_site_occupancy
  S  S0  1  0.75002473  0.08318233  0.33431457  1
  S  S1  1  0.24997527  0.58250211  0.33431457  1
  S  S2  1  0.25392911  0.24927848  -0.00000000  1
  S  S3  1  0.74607089  0.75072152  1.00000000  1
  S  S4  1  0.75002473  0.41749789  0.66568543  1
  S  S5  1  0.24997527  0.91681767  0.66568543  1
  Pa  Pa6  1  0.00000000  0.00000000  0.00000000  1
  Ho  Ho7  1  0.50000000  0.17006399  0.65987202  1
  Ho  Ho8  1  -0.00000000  0.33421156  0.33157688  1
  Ho  Ho9  1  0.50000000  0.50000000  0.00000000  1
  Ho  Ho10  1  1.00000000  0.66578844  0.66842312  1
  Ho  Ho11  1  0.50000000  0.82993601  0.34012798  1
