# generated using pymatgen
data_TiNi6Mo
_symmetry_space_group_name_H-M   'P 1'
_cell_length_a   3.60377500
_cell_length_b   5.17517288
_cell_length_c   5.17517194
_cell_angle_alpha   90.39971223
_cell_angle_beta   90.00000000
_cell_angle_gamma   90.00000000
_symmetry_Int_Tables_number   1
_chemical_formula_structural   TiNi6Mo
_chemical_formula_sum   'Ti1 Ni6 Mo1'
_cell_volume   96.51542899
_cell_formula_units_Z   1
loop_
 _symmetry_equiv_pos_site_id
 _symmetry_equiv_pos_as_xyz
  1  'x, y, z'
loop_
 _atom_site_type_symbol
 _atom_site_label
 _atom_site_symmetry_multiplicity
 _atom_site_fract_x
 _atom_site_fract_y
 _atom_site_fract_z
 _atom_site_occupancy
  Ti  Ti0  1  0.50000000  0.39960790  0.60039210  1
  Ni  Ni1  1  0.00000000  0.61599541  0.87195294  1
  Ni  Ni2  1  0.00000000  0.12804706  0.38400459  1
  Ni  Ni3  1  0.00000000  0.62971569  0.37028431  1
  Ni  Ni4  1  0.50000000  0.88388701  0.62849699  1
  Ni  Ni5  1  0.50000000  0.37150301  0.11611299  1
  Ni  Ni6  1  0.50000000  0.87074942  0.12925058  1
  Mo  Mo7  1  0.00000000  0.10049551  0.89950449  1
