# generated using pymatgen
data_Mo2As3Br
_symmetry_space_group_name_H-M   'P 1'
_cell_length_a   5.55679325
_cell_length_b   3.40323076
_cell_length_c   20.81614585
_cell_angle_alpha   90.00000000
_cell_angle_beta   90.00000000
_cell_angle_gamma   104.58005245
_symmetry_Int_Tables_number   1
_chemical_formula_structural   Mo2As3Br
_chemical_formula_sum   'Mo2 As3 Br1'
_cell_volume   380.97824001
_cell_formula_units_Z   1
loop_
 _symmetry_equiv_pos_site_id
 _symmetry_equiv_pos_as_xyz
  1  'x, y, z'
loop_
 _atom_site_type_symbol
 _atom_site_label
 _atom_site_symmetry_multiplicity
 _atom_site_fract_x
 _atom_site_fract_y
 _atom_site_fract_z
 _atom_site_occupancy
  Mo  Mo0  1  0.02084088  0.91560233  0.49094464  1
  Mo  Mo1  1  0.66884723  0.12842220  0.53785390  1
  As  As2  1  0.72217826  0.27412851  0.41190624  1
  As  As3  1  0.01147557  0.89905810  0.37074739  1
  As  As4  1  0.31495463  0.53259103  0.53839493  1
  Br  Br5  1  0.79882591  0.17433240  0.65015290  1
