# generated using pymatgen
data_As3Ru
_symmetry_space_group_name_H-M   'P 1'
_cell_length_a   4.51365618
_cell_length_b   4.51365618
_cell_length_c   4.51365618
_cell_angle_alpha   109.46862411
_cell_angle_beta   109.46862405
_cell_angle_gamma   109.46862406
_symmetry_Int_Tables_number   1
_chemical_formula_structural   As3Ru
_chemical_formula_sum   'As3 Ru1'
_cell_volume   70.79543854
_cell_formula_units_Z   1
loop_
 _symmetry_equiv_pos_site_id
 _symmetry_equiv_pos_as_xyz
  1  'x, y, z'
loop_
 _atom_site_type_symbol
 _atom_site_label
 _atom_site_symmetry_multiplicity
 _atom_site_fract_x
 _atom_site_fract_y
 _atom_site_fract_z
 _atom_site_occupancy
  Ru  Ru0  1  -0.00000000  0.50000000  0.50000000  1
  As  As1  1  0.00000000  0.00000000  0.00000000  1
  As  As2  1  0.50000000  0.00000000  0.50000000  1
  As  As3  1  0.50000000  0.50000000  -0.00000000  1
