# generated using pymatgen
data_NbInPt
_symmetry_space_group_name_H-M   'P 1'
_cell_length_a   5.50756770
_cell_length_b   4.77383106
_cell_length_c   6.19709444
_cell_angle_alpha   75.14741337
_cell_angle_beta   63.61715754
_cell_angle_gamma   54.77071669
_symmetry_Int_Tables_number   1
_chemical_formula_structural   NbInPt
_chemical_formula_sum   'Nb2 In2 Pt2'
_cell_volume   119.23128509
_cell_formula_units_Z   2
loop_
 _symmetry_equiv_pos_site_id
 _symmetry_equiv_pos_as_xyz
  1  'x, y, z'
loop_
 _atom_site_type_symbol
 _atom_site_label
 _atom_site_symmetry_multiplicity
 _atom_site_fract_x
 _atom_site_fract_y
 _atom_site_fract_z
 _atom_site_occupancy
  Nb  Nb0  1  0.75000000  0.50000000  0.50000000  1
  Nb  Nb1  1  0.25000000  0.50000000  0.50000000  1
  In  In2  1  0.82336148  0.35327704  0.00000000  1
  In  In3  1  0.17663852  0.64672296  1.00000000  1
  Pt  Pt4  1  0.62909544  1.00000000  0.74180911  1
  Pt  Pt5  1  0.37090456  0.00000000  0.25819089  1
