# generated using pymatgen
data_Rb2BeCdP2
_symmetry_space_group_name_H-M   'P 1'
_cell_length_a   6.09354359
_cell_length_b   5.99689401
_cell_length_c   9.36025266
_cell_angle_alpha   108.68338237
_cell_angle_beta   108.99593196
_cell_angle_gamma   90.00000000
_symmetry_Int_Tables_number   1
_chemical_formula_structural   Rb2BeCdP2
_chemical_formula_sum   'Rb4 Be2 Cd2 P4'
_cell_volume   304.29218873
_cell_formula_units_Z   2
loop_
 _symmetry_equiv_pos_site_id
 _symmetry_equiv_pos_as_xyz
  1  'x, y, z'
loop_
 _atom_site_type_symbol
 _atom_site_label
 _atom_site_symmetry_multiplicity
 _atom_site_fract_x
 _atom_site_fract_y
 _atom_site_fract_z
 _atom_site_occupancy
  Rb  Rb0  1  0.40767651  0.17064267  0.34128634  1
  Rb  Rb1  1  0.59232349  0.82935733  0.65871366  1
  Rb  Rb2  1  0.06639017  0.32935733  0.65871366  1
  Rb  Rb3  1  0.93360983  0.67064267  0.34128634  1
  Be  Be4  1  0.50000000  0.75000000  0.00000000  1
  Be  Be5  1  0.50000000  0.25000000  0.00000000  1
  Cd  Cd6  1  0.00000000  0.75000000  0.00000000  1
  Cd  Cd7  1  0.00000000  0.25000000  0.00000000  1
  P  P8  1  0.78376094  0.08059021  0.16117943  1
  P  P9  1  0.37741849  0.58059021  0.16117943  1
  P  P10  1  0.62258151  0.41940979  0.83882057  1
  P  P11  1  0.21623906  0.91940979  0.83882057  1
