# generated using pymatgen
data_BeFeAs2
_symmetry_space_group_name_H-M   'P 1'
_cell_length_a   4.54729502
_cell_length_b   4.54729510
_cell_length_c   4.54729519
_cell_angle_alpha   134.33613865
_cell_angle_beta   120.20957066
_cell_angle_gamma   78.34429745
_symmetry_Int_Tables_number   1
_chemical_formula_structural   BeFeAs2
_chemical_formula_sum   'Be1 Fe1 As2'
_cell_volume   56.39206312
_cell_formula_units_Z   1
loop_
 _symmetry_equiv_pos_site_id
 _symmetry_equiv_pos_as_xyz
  1  'x, y, z'
loop_
 _atom_site_type_symbol
 _atom_site_label
 _atom_site_symmetry_multiplicity
 _atom_site_fract_x
 _atom_site_fract_y
 _atom_site_fract_z
 _atom_site_occupancy
  Be  Be0  1  0.25000000  0.75000000  0.50000000  1
  As  As1  1  0.03069862  0.03069862  1.00000000  1
  As  As2  1  0.46930138  0.46930138  -0.00000000  1
  Fe  Fe3  1  0.75000000  0.25000000  0.50000000  1
