# generated using pymatgen
data_YPuSi
_symmetry_space_group_name_H-M   'P 1'
_cell_length_a   3.63116308
_cell_length_b   4.78455417
_cell_length_c   4.78455416
_cell_angle_alpha   119.99999999
_cell_angle_beta   90.00000000
_cell_angle_gamma   90.00000000
_symmetry_Int_Tables_number   1
_chemical_formula_structural   YPuSi
_chemical_formula_sum   'Y1 Pu1 Si1'
_cell_volume   71.98787219
_cell_formula_units_Z   1
loop_
 _symmetry_equiv_pos_site_id
 _symmetry_equiv_pos_as_xyz
  1  'x, y, z'
loop_
 _atom_site_type_symbol
 _atom_site_label
 _atom_site_symmetry_multiplicity
 _atom_site_fract_x
 _atom_site_fract_y
 _atom_site_fract_z
 _atom_site_occupancy
  Y  Y0  1  0.72082792  0.66666667  0.33333333  1
  Si  Si1  1  0.99433797  0.00000000  0.00000000  1
  Pu  Pu2  1  0.28483412  0.33333333  0.66666667  1
