# generated using pymatgen
data_Mn2CdF
_symmetry_space_group_name_H-M   'P 1'
_cell_length_a   6.76653769
_cell_length_b   6.76653769
_cell_length_c   5.83769391
_cell_angle_alpha   54.58070027
_cell_angle_beta   54.58070027
_cell_angle_gamma   90.00000000
_symmetry_Int_Tables_number   1
_chemical_formula_structural   Mn2CdF
_chemical_formula_sum   'Mn4 Cd2 F2'
_cell_volume   153.13120604
_cell_formula_units_Z   2
loop_
 _symmetry_equiv_pos_site_id
 _symmetry_equiv_pos_as_xyz
  1  'x, y, z'
loop_
 _atom_site_type_symbol
 _atom_site_label
 _atom_site_symmetry_multiplicity
 _atom_site_fract_x
 _atom_site_fract_y
 _atom_site_fract_z
 _atom_site_occupancy
  F  F0  1  0.50000000  0.50000000  0.00000000  1
  F  F1  1  0.25000000  0.75000000  0.50000000  1
  Mn  Mn2  1  0.55135320  0.12500000  0.25000000  1
  Mn  Mn3  1  0.19864680  0.62500000  0.25000000  1
  Mn  Mn4  1  0.37500000  0.44864680  0.75000000  1
  Mn  Mn5  1  0.87500000  0.80135320  0.75000000  1
  Cd  Cd6  1  0.00000000  0.00000000  0.00000000  1
  Cd  Cd7  1  0.75000000  0.25000000  0.50000000  1
