# generated using pymatgen
data_Li(CeCd3)2
_symmetry_space_group_name_H-M   'P 1'
_cell_length_a   3.15834282
_cell_length_b   8.85949561
_cell_length_c   8.85949570
_cell_angle_alpha   60.00047009
_cell_angle_beta   89.97067197
_cell_angle_gamma   89.97066282
_symmetry_Int_Tables_number   1
_chemical_formula_structural   Li(CeCd3)2
_chemical_formula_sum   'Li1 Ce2 Cd6'
_cell_volume   214.68904306
_cell_formula_units_Z   1
loop_
 _symmetry_equiv_pos_site_id
 _symmetry_equiv_pos_as_xyz
  1  'x, y, z'
loop_
 _atom_site_type_symbol
 _atom_site_label
 _atom_site_symmetry_multiplicity
 _atom_site_fract_x
 _atom_site_fract_y
 _atom_site_fract_z
 _atom_site_occupancy
  Li  Li0  1  0.00000000  0.00000000  0.00000000  1
  Ce  Ce1  1  0.00000211  0.33330846  0.33330946  1
  Ce  Ce2  1  0.99999789  0.66669154  0.66669054  1
  Cd  Cd3  1  0.49923908  0.67472033  0.00002198  1
  Cd  Cd4  1  0.50075992  0.99997802  0.32527967  1
  Cd  Cd5  1  0.50076092  0.32527967  0.99997802  1
  Cd  Cd6  1  0.50000000  0.67466618  0.32533282  1
  Cd  Cd7  1  0.49924008  0.00002198  0.67472033  1
  Cd  Cd8  1  0.50000000  0.32533382  0.67466718  1
