# generated using pymatgen
data_Ca(NiAs)2
_symmetry_space_group_name_H-M   'P 1'
_cell_length_a   7.29086104
_cell_length_b   7.29086104
_cell_length_c   3.04881287
_cell_angle_alpha   90.00000000
_cell_angle_beta   90.00000000
_cell_angle_gamma   90.00000000
_symmetry_Int_Tables_number   1
_chemical_formula_structural   Ca(NiAs)2
_chemical_formula_sum   'Ca2 Ni4 As4'
_cell_volume   162.06469299
_cell_formula_units_Z   2
loop_
 _symmetry_equiv_pos_site_id
 _symmetry_equiv_pos_as_xyz
  1  'x, y, z'
loop_
 _atom_site_type_symbol
 _atom_site_label
 _atom_site_symmetry_multiplicity
 _atom_site_fract_x
 _atom_site_fract_y
 _atom_site_fract_z
 _atom_site_occupancy
  Ni  Ni0  1  0.38063585  0.88063585  0.00000000  1
  Ni  Ni1  1  0.88063585  0.61936415  0.00000000  1
  Ni  Ni2  1  0.61936415  0.11936415  0.00000000  1
  Ni  Ni3  1  0.11936415  0.38063585  0.00000000  1
  As  As4  1  0.16288290  0.66288290  0.50000000  1
  As  As5  1  0.66288290  0.83711710  0.50000000  1
  As  As6  1  0.83711710  0.33711710  0.50000000  1
  As  As7  1  0.33711710  0.16288290  0.50000000  1
  Ca  Ca8  1  0.00000000  0.00000000  0.00000000  1
  Ca  Ca9  1  0.50000000  0.50000000  0.00000000  1
