# generated using pymatgen
data_Pm5Ni2Bi
_symmetry_space_group_name_H-M   'P 1'
_cell_length_a   7.95193648
_cell_length_b   7.95193648
_cell_length_c   8.85863319
_cell_angle_alpha   116.66826565
_cell_angle_beta   116.66826565
_cell_angle_gamma   90.00000000
_symmetry_Int_Tables_number   1
_chemical_formula_structural   Pm5Ni2Bi
_chemical_formula_sum   'Pm10 Ni4 Bi2'
_cell_volume   432.85365135
_cell_formula_units_Z   2
loop_
 _symmetry_equiv_pos_site_id
 _symmetry_equiv_pos_as_xyz
  1  'x, y, z'
loop_
 _atom_site_type_symbol
 _atom_site_label
 _atom_site_symmetry_multiplicity
 _atom_site_fract_x
 _atom_site_fract_y
 _atom_site_fract_z
 _atom_site_occupancy
  Pm  Pm0  1  0.52014744  0.70957102  0.72971846  1
  Pm  Pm1  1  0.79042898  0.97985256  0.27028154  1
  Pm  Pm2  1  0.00000000  0.00000000  0.00000000  1
  Pm  Pm3  1  0.50000000  0.50000000  0.00000000  1
  Pm  Pm4  1  0.20957102  0.02014744  0.72971846  1
  Pm  Pm5  1  0.70957102  0.20957102  0.72971846  1
  Pm  Pm6  1  0.02014744  0.52014744  0.72971846  1
  Pm  Pm7  1  0.29042898  0.79042898  0.27028154  1
  Pm  Pm8  1  0.97985256  0.47985256  0.27028154  1
  Pm  Pm9  1  0.47985256  0.29042898  0.27028154  1
  Ni  Ni10  1  0.13025480  0.36974520  1.00000000  1
  Ni  Ni11  1  0.63025480  0.13025580  0.00000000  1
  Ni  Ni12  1  0.36974420  0.86974520  1.00000000  1
  Ni  Ni13  1  0.86974420  0.63025580  0.00000000  1
  Bi  Bi14  1  0.75000000  0.75000000  0.50000000  1
  Bi  Bi15  1  0.25000000  0.25000000  0.50000000  1
