# generated using pymatgen
data_Pa(NiRh)2
_symmetry_space_group_name_H-M   'P 1'
_cell_length_a   4.73297246
_cell_length_b   4.73299712
_cell_length_c   12.12883737
_cell_angle_alpha   51.59772914
_cell_angle_beta   128.40246014
_cell_angle_gamma   130.26462730
_symmetry_Int_Tables_number   1
_chemical_formula_structural   Pa(NiRh)2
_chemical_formula_sum   'Pa2 Ni4 Rh4'
_cell_volume   151.11147691
_cell_formula_units_Z   2
loop_
 _symmetry_equiv_pos_site_id
 _symmetry_equiv_pos_as_xyz
  1  'x, y, z'
loop_
 _atom_site_type_symbol
 _atom_site_label
 _atom_site_symmetry_multiplicity
 _atom_site_fract_x
 _atom_site_fract_y
 _atom_site_fract_z
 _atom_site_occupancy
  Pa  Pa0  1  0.80112051  0.19887056  0.20441324  1
  Pa  Pa1  1  0.19887949  0.80113044  0.79558676  1
  Ni  Ni2  1  0.39179634  0.60820865  0.59607490  1
  Ni  Ni3  1  0.39806229  0.60193470  0.10035242  1
  Ni  Ni4  1  0.60820366  0.39179135  0.40392510  1
  Ni  Ni5  1  0.60193771  0.39806530  0.89964758  1
  Rh  Rh6  1  0.80166661  0.19834238  0.69029523  1
  Rh  Rh7  1  0.00000000  0.00000000  0.00000000  1
  Rh  Rh8  1  0.00000000  0.00000000  0.50000000  1
  Rh  Rh9  1  0.19833339  0.80165762  0.30970477  1
