# generated using pymatgen
data_SnHgMoHAu
_symmetry_space_group_name_H-M   'P 1'
_cell_length_a   5.52286000
_cell_length_b   3.27220919
_cell_length_c   10.33379498
_cell_angle_alpha   90.00000000
_cell_angle_beta   115.46114681
_cell_angle_gamma   90.00000000
_symmetry_Int_Tables_number   1
_chemical_formula_structural   SnHgMoHAu
_chemical_formula_sum   'Sn2 Hg2 Mo2 H2 Au2'
_cell_volume   168.61396146
_cell_formula_units_Z   2
loop_
 _symmetry_equiv_pos_site_id
 _symmetry_equiv_pos_as_xyz
  1  'x, y, z'
loop_
 _atom_site_type_symbol
 _atom_site_label
 _atom_site_symmetry_multiplicity
 _atom_site_fract_x
 _atom_site_fract_y
 _atom_site_fract_z
 _atom_site_occupancy
  Sn  Sn0  1  0.47416308  0.00000000  0.86956451  1
  Sn  Sn1  1  0.47416308  0.50000000  0.36956451  1
  Hg  Hg2  1  0.83612644  0.00000000  0.65592258  1
  Hg  Hg3  1  0.83612644  0.50000000  0.15592258  1
  Mo  Mo4  1  0.39061622  0.00000000  0.12783807  1
  Mo  Mo5  1  0.39061622  0.50000000  0.62783807  1
  H  H6  1  0.19005579  0.00000000  0.22017002  1
  H  H7  1  0.19005579  0.50000000  0.72017002  1
  Au  Au8  1  0.98610847  0.00000000  0.42369482  1
  Au  Au9  1  0.98610847  0.50000000  0.92369482  1
