# generated using pymatgen
data_CeNbV4
_symmetry_space_group_name_H-M   'P 1'
_cell_length_a   5.18071261
_cell_length_b   5.18071261
_cell_length_c   5.18071261
_cell_angle_alpha   60.00000002
_cell_angle_beta   60.00000003
_cell_angle_gamma   60.00000005
_symmetry_Int_Tables_number   1
_chemical_formula_structural   CeNbV4
_chemical_formula_sum   'Ce1 Nb1 V4'
_cell_volume   98.32263430
_cell_formula_units_Z   1
loop_
 _symmetry_equiv_pos_site_id
 _symmetry_equiv_pos_as_xyz
  1  'x, y, z'
loop_
 _atom_site_type_symbol
 _atom_site_label
 _atom_site_symmetry_multiplicity
 _atom_site_fract_x
 _atom_site_fract_y
 _atom_site_fract_z
 _atom_site_occupancy
  Nb  Nb0  1  0.25000000  0.25000000  0.25000000  1
  Ce  Ce1  1  0.00000000  0.00000000  0.00000000  1
  V  V2  1  0.62519859  0.62519759  0.12440623  1
  V  V3  1  0.62519859  0.12440623  0.62519759  1
  V  V4  1  0.62519859  0.62519759  0.62519759  1
  V  V5  1  0.12440723  0.62519759  0.62519759  1
