# generated using pymatgen
data_Al
_symmetry_space_group_name_H-M   'P 1'
_cell_length_a   7.89469000
_cell_length_b   7.89469000
_cell_length_c   4.68613000
_cell_angle_alpha   90.00000000
_cell_angle_beta   90.00000000
_cell_angle_gamma   90.00000000
_symmetry_Int_Tables_number   1
_chemical_formula_structural   Al
_chemical_formula_sum   Al16
_cell_volume   292.06834850
_cell_formula_units_Z   16
loop_
 _symmetry_equiv_pos_site_id
 _symmetry_equiv_pos_as_xyz
  1  'x, y, z'
loop_
 _atom_site_type_symbol
 _atom_site_label
 _atom_site_symmetry_multiplicity
 _atom_site_fract_x
 _atom_site_fract_y
 _atom_site_fract_z
 _atom_site_occupancy
  Al  Al0  1  0.93693000  0.74364000  0.50000000  1
  Al  Al1  1  0.06307000  0.25636000  0.50000000  1
  Al  Al2  1  0.25636000  0.93693000  0.50000000  1
  Al  Al3  1  0.74364000  0.06307000  0.50000000  1
  Al  Al4  1  0.82341000  0.55930000  0.00000000  1
  Al  Al5  1  0.17659000  0.44070000  0.00000000  1
  Al  Al6  1  0.44070000  0.82341000  0.00000000  1
  Al  Al7  1  0.55930000  0.17659000  0.00000000  1
  Al  Al8  1  0.73037000  0.40729000  0.50000000  1
  Al  Al9  1  0.26963000  0.59271000  0.50000000  1
  Al  Al10  1  0.59271000  0.73037000  0.50000000  1
  Al  Al11  1  0.40729000  0.26963000  0.50000000  1
  Al  Al12  1  0.10676000  0.77555000  0.00000000  1
  Al  Al13  1  0.89324000  0.22445000  0.00000000  1
  Al  Al14  1  0.22445000  0.10676000  0.00000000  1
  Al  Al15  1  0.77555000  0.89324000  0.00000000  1
