# generated using pymatgen
data_NaYGe
_symmetry_space_group_name_H-M   'P 1'
_cell_length_a   7.88238411
_cell_length_b   7.31306523
_cell_length_c   7.31306523
_cell_angle_alpha   145.38158311
_cell_angle_beta   136.00238754
_cell_angle_gamma   43.99761246
_symmetry_Int_Tables_number   1
_chemical_formula_structural   NaYGe
_chemical_formula_sum   'Na2 Y2 Ge2'
_cell_volume   157.45444055
_cell_formula_units_Z   2
loop_
 _symmetry_equiv_pos_site_id
 _symmetry_equiv_pos_as_xyz
  1  'x, y, z'
loop_
 _atom_site_type_symbol
 _atom_site_label
 _atom_site_symmetry_multiplicity
 _atom_site_fract_x
 _atom_site_fract_y
 _atom_site_fract_z
 _atom_site_occupancy
  Y  Y0  1  0.69239199  0.58477943  0.41522057  1
  Y  Y1  1  0.30760801  0.41522057  0.58477943  1
  Na  Na2  1  0.21887614  0.17636524  0.82363476  1
  Na  Na3  1  0.78112386  0.82363476  0.17636524  1
  Ge  Ge4  1  0.87464748  0.13479667  0.86520333  1
  Ge  Ge5  1  0.12535252  0.86520333  0.13479667  1
