# generated using pymatgen
data_Ac2B4Os3
_symmetry_space_group_name_H-M   'P 1'
_cell_length_a   5.66011870
_cell_length_b   5.66011870
_cell_length_c   6.45603172
_cell_angle_alpha   103.05377056
_cell_angle_beta   103.05377048
_cell_angle_gamma   118.99595685
_symmetry_Int_Tables_number   1
_chemical_formula_structural   Ac2B4Os3
_chemical_formula_sum   'Ac2 B4 Os3'
_cell_volume   162.00733832
_cell_formula_units_Z   1
loop_
 _symmetry_equiv_pos_site_id
 _symmetry_equiv_pos_as_xyz
  1  'x, y, z'
loop_
 _atom_site_type_symbol
 _atom_site_label
 _atom_site_symmetry_multiplicity
 _atom_site_fract_x
 _atom_site_fract_y
 _atom_site_fract_z
 _atom_site_occupancy
  Ac  Ac0  1  0.65550561  0.65550561  0.31101122  1
  Ac  Ac1  1  0.34449439  0.34449439  0.68898878  1
  B  B2  1  0.05348688  0.71577821  0.76926610  1
  B  B3  1  0.71577821  0.05348688  0.76926610  1
  B  B4  1  0.94651312  0.28422179  0.23073390  1
  B  B5  1  0.28422179  0.94651312  0.23073390  1
  Os  Os6  1  0.50000000  0.00000000  0.00000000  1
  Os  Os7  1  0.00000000  0.00000000  0.00000000  1
  Os  Os8  1  0.00000000  0.50000000  0.00000000  1
