# generated using pymatgen
data_CrAs
_symmetry_space_group_name_H-M   'P 1'
_cell_length_a   5.84541181
_cell_length_b   5.84545305
_cell_length_c   18.22850197
_cell_angle_alpha   90.00000000
_cell_angle_beta   90.00000000
_cell_angle_gamma   89.99999284
_symmetry_Int_Tables_number   1
_chemical_formula_structural   CrAs
_chemical_formula_sum   'Cr6 As6'
_cell_volume   622.85114744
_cell_formula_units_Z   6
loop_
 _symmetry_equiv_pos_site_id
 _symmetry_equiv_pos_as_xyz
  1  'x, y, z'
loop_
 _atom_site_type_symbol
 _atom_site_label
 _atom_site_symmetry_multiplicity
 _atom_site_fract_x
 _atom_site_fract_y
 _atom_site_fract_z
 _atom_site_occupancy
  Cr  Cr0  1  0.64025452  0.35974013  0.53754493  1
  Cr  Cr1  1  0.35974805  0.64026106  0.53754485  1
  Cr  Cr2  1  0.14025376  0.14025963  0.53754502  1
  Cr  Cr3  1  0.85974767  0.85973901  0.53754477  1
  Cr  Cr4  1  0.00000021  0.50000028  0.46880644  1
  Cr  Cr5  1  0.50000054  0.99999971  0.46880644  1
  As  As6  1  0.84761111  0.15239934  0.42633043  1
  As  As7  1  0.15239016  0.84760067  0.42633027  1
  As  As8  1  0.34761100  0.34760059  0.42633056  1
  As  As9  1  0.65239011  0.65239942  0.42633020  1
  As  As10  1  0.00000141  0.50000008  0.60344305  1
  As  As11  1  0.50000144  0.00000010  0.60344304  1
