# generated using pymatgen
data_Ca2MgHg2
_symmetry_space_group_name_H-M   'P 1'
_cell_length_a   4.30099876
_cell_length_b   4.30099876
_cell_length_c   9.02150404
_cell_angle_alpha   76.20935939
_cell_angle_beta   76.20935939
_cell_angle_gamma   90.00000000
_symmetry_Int_Tables_number   1
_chemical_formula_structural   Ca2MgHg2
_chemical_formula_sum   'Ca2 Mg1 Hg2'
_cell_volume   157.11635890
_cell_formula_units_Z   1
loop_
 _symmetry_equiv_pos_site_id
 _symmetry_equiv_pos_as_xyz
  1  'x, y, z'
loop_
 _atom_site_type_symbol
 _atom_site_label
 _atom_site_symmetry_multiplicity
 _atom_site_fract_x
 _atom_site_fract_y
 _atom_site_fract_z
 _atom_site_occupancy
  Mg  Mg0  1  0.00000000  0.00000000  0.00000000  1
  Ca  Ca1  1  0.39342812  0.39342812  0.21314377  1
  Ca  Ca2  1  0.60657188  0.60657188  0.78685623  1
  Hg  Hg3  1  0.75000000  0.25000000  0.50000000  1
  Hg  Hg4  1  0.25000000  0.75000000  0.50000000  1
