# generated using pymatgen
data_DyTaMoO6
_symmetry_space_group_name_H-M   'P 1'
_cell_length_a   5.43055912
_cell_length_b   5.43055912
_cell_length_c   8.96151181
_cell_angle_alpha   90.00000000
_cell_angle_beta   90.00000000
_cell_angle_gamma   119.99999997
_symmetry_Int_Tables_number   1
_chemical_formula_structural   DyTaMoO6
_chemical_formula_sum   'Dy2 Ta2 Mo2 O12'
_cell_volume   228.87639571
_cell_formula_units_Z   2
loop_
 _symmetry_equiv_pos_site_id
 _symmetry_equiv_pos_as_xyz
  1  'x, y, z'
loop_
 _atom_site_type_symbol
 _atom_site_label
 _atom_site_symmetry_multiplicity
 _atom_site_fract_x
 _atom_site_fract_y
 _atom_site_fract_z
 _atom_site_occupancy
  Dy  Dy0  1  0.33333333  0.66666667  0.25000000  1
  Dy  Dy1  1  0.66666667  0.33333333  0.75000000  1
  Ta  Ta2  1  0.66666667  0.33333333  0.25000000  1
  Ta  Ta3  1  0.33333333  0.66666667  0.75000000  1
  Mo  Mo4  1  0.00000000  0.00000000  0.00000000  1
  Mo  Mo5  1  0.00000000  0.00000000  0.50000000  1
  O  O6  1  0.69578957  0.65618862  0.12737664  1
  O  O7  1  0.96039905  0.30420943  0.12737664  1
  O  O8  1  0.30421043  0.96040005  0.62737664  1
  O  O9  1  0.03960095  0.69579057  0.87262336  1
  O  O10  1  0.34381038  0.30420943  0.37262336  1
  O  O11  1  0.96039905  0.65618862  0.37262336  1
  O  O12  1  0.65618962  0.96040005  0.87262336  1
  O  O13  1  0.69578957  0.03959995  0.37262336  1
  O  O14  1  0.03960095  0.34381138  0.62737664  1
  O  O15  1  0.34381038  0.03959995  0.12737664  1
  O  O16  1  0.65618962  0.69579057  0.62737664  1
  O  O17  1  0.30421043  0.34381138  0.87262336  1
