# generated using pymatgen
data_Tm3ScSe6
_symmetry_space_group_name_H-M   'P 1'
_cell_length_a   8.19427868
_cell_length_b   8.19427868
_cell_length_c   8.19427869
_cell_angle_alpha   90.85928978
_cell_angle_beta   90.85928974
_cell_angle_gamma   90.85928971
_symmetry_Int_Tables_number   1
_chemical_formula_structural   Tm3ScSe6
_chemical_formula_sum   'Tm6 Sc2 Se12'
_cell_volume   550.02719355
_cell_formula_units_Z   2
loop_
 _symmetry_equiv_pos_site_id
 _symmetry_equiv_pos_as_xyz
  1  'x, y, z'
loop_
 _atom_site_type_symbol
 _atom_site_label
 _atom_site_symmetry_multiplicity
 _atom_site_fract_x
 _atom_site_fract_y
 _atom_site_fract_z
 _atom_site_occupancy
  Tm  Tm0  1  0.42752962  0.91900797  0.75420754  1
  Tm  Tm1  1  0.91900797  0.75420754  0.42752962  1
  Tm  Tm2  1  0.24579246  0.57247038  0.08099203  1
  Tm  Tm3  1  0.75420754  0.42752962  0.91900797  1
  Tm  Tm4  1  0.08099203  0.24579246  0.57247038  1
  Tm  Tm5  1  0.57247038  0.08099203  0.24579246  1
  Sc  Sc6  1  0.00000000  0.00000000  0.00000000  1
  Sc  Sc7  1  0.50000000  0.50000000  0.50000000  1
  Se  Se8  1  0.30939246  0.91665036  0.08584912  1
  Se  Se9  1  0.08334964  0.91415088  0.69060754  1
  Se  Se10  1  0.58699770  0.81314965  0.45845393  1
  Se  Se11  1  0.91415088  0.69060754  0.08334964  1
  Se  Se12  1  0.45845393  0.58699770  0.81314965  1
  Se  Se13  1  0.18685035  0.54154607  0.41300230  1
  Se  Se14  1  0.81314965  0.45845393  0.58699770  1
  Se  Se15  1  0.54154607  0.41300230  0.18685035  1
  Se  Se16  1  0.08584912  0.30939246  0.91665036  1
  Se  Se17  1  0.41300230  0.18685035  0.54154607  1
  Se  Se18  1  0.91665036  0.08584912  0.30939246  1
  Se  Se19  1  0.69060754  0.08334964  0.91415088  1
