# generated using pymatgen
data_Pb3IO3
_symmetry_space_group_name_H-M   'P 1'
_cell_length_a   4.83103684
_cell_length_b   9.30761020
_cell_length_c   9.30760979
_cell_angle_alpha   119.99999857
_cell_angle_beta   90.00000000
_cell_angle_gamma   90.00000000
_symmetry_Int_Tables_number   1
_chemical_formula_structural   Pb3IO3
_chemical_formula_sum   'Pb6 I2 O6'
_cell_volume   362.44936373
_cell_formula_units_Z   2
loop_
 _symmetry_equiv_pos_site_id
 _symmetry_equiv_pos_as_xyz
  1  'x, y, z'
loop_
 _atom_site_type_symbol
 _atom_site_label
 _atom_site_symmetry_multiplicity
 _atom_site_fract_x
 _atom_site_fract_y
 _atom_site_fract_z
 _atom_site_occupancy
  Pb  Pb0  1  0.75000000  0.26619572  0.98999815  1
  Pb  Pb1  1  0.75000000  0.72380143  0.73380428  1
  Pb  Pb2  1  0.25000000  0.98999715  0.72380143  1
  Pb  Pb3  1  0.75000000  0.01000285  0.27619857  1
  Pb  Pb4  1  0.25000000  0.27619857  0.26619572  1
  Pb  Pb5  1  0.25000000  0.73380428  0.01000285  1
  I  I6  1  0.25000000  0.33333300  0.66666700  1
  I  I7  1  0.75000000  0.66666700  0.33333300  1
  O  O8  1  0.75000000  0.99177524  0.78016795  1
  O  O9  1  0.75000000  0.78839271  0.00822476  1
  O  O10  1  0.25000000  0.78016795  0.78839271  1
  O  O11  1  0.75000000  0.21983205  0.21160729  1
  O  O12  1  0.25000000  0.21160729  0.99177524  1
  O  O13  1  0.25000000  0.00822476  0.21983205  1
