# generated using pymatgen
data_ZnNi5B
_symmetry_space_group_name_H-M   'P 1'
_cell_length_a   3.49719876
_cell_length_b   3.49719367
_cell_length_c   6.10063637
_cell_angle_alpha   90.00000000
_cell_angle_beta   90.00000000
_cell_angle_gamma   90.00000000
_symmetry_Int_Tables_number   1
_chemical_formula_structural   ZnNi5B
_chemical_formula_sum   'Zn1 Ni5 B1'
_cell_volume   74.61310938
_cell_formula_units_Z   1
loop_
 _symmetry_equiv_pos_site_id
 _symmetry_equiv_pos_as_xyz
  1  'x, y, z'
loop_
 _atom_site_type_symbol
 _atom_site_label
 _atom_site_symmetry_multiplicity
 _atom_site_fract_x
 _atom_site_fract_y
 _atom_site_fract_z
 _atom_site_occupancy
  Zn  Zn0  1  0.00000000  0.00000000  0.50000000  1
  Ni  Ni1  1  0.00000000  0.50000000  0.80563562  1
  Ni  Ni2  1  0.00000000  0.50000000  0.19436438  1
  Ni  Ni3  1  0.50000000  0.00000000  0.80563662  1
  Ni  Ni4  1  0.50000000  0.00000000  0.19436338  1
  Ni  Ni5  1  0.50000000  0.50000000  0.50000000  1
  B  B6  1  0.50000000  0.50000000  0.00000000  1
