# generated using pymatgen
data_FeIrSe
_symmetry_space_group_name_H-M   'P 1'
_cell_length_a   7.38472647
_cell_length_b   7.13352655
_cell_length_c   2.77822377
_cell_angle_alpha   84.10412851
_cell_angle_beta   73.91963341
_cell_angle_gamma   21.97623773
_symmetry_Int_Tables_number   1
_chemical_formula_structural   FeIrSe
_chemical_formula_sum   'Fe1 Ir1 Se1'
_cell_volume   47.54588906
_cell_formula_units_Z   1
loop_
 _symmetry_equiv_pos_site_id
 _symmetry_equiv_pos_as_xyz
  1  'x, y, z'
loop_
 _atom_site_type_symbol
 _atom_site_label
 _atom_site_symmetry_multiplicity
 _atom_site_fract_x
 _atom_site_fract_y
 _atom_site_fract_z
 _atom_site_occupancy
  Fe  Fe0  1  0.99898574  0.99898574  0.00101426  1
  Ir  Ir1  1  0.35288061  0.35288061  0.64711939  1
  Se  Se2  1  0.64813365  0.64813365  0.35186635  1
