# generated using pymatgen
data_Y(GeTe2)2
_symmetry_space_group_name_H-M   'P 1'
_cell_length_a   4.22511725
_cell_length_b   7.32102369
_cell_length_c   13.83338224
_cell_angle_alpha   90.00000000
_cell_angle_beta   90.00000000
_cell_angle_gamma   106.77179793
_symmetry_Int_Tables_number   1
_chemical_formula_structural   Y(GeTe2)2
_chemical_formula_sum   'Y2 Ge4 Te8'
_cell_volume   409.69469657
_cell_formula_units_Z   2
loop_
 _symmetry_equiv_pos_site_id
 _symmetry_equiv_pos_as_xyz
  1  'x, y, z'
loop_
 _atom_site_type_symbol
 _atom_site_label
 _atom_site_symmetry_multiplicity
 _atom_site_fract_x
 _atom_site_fract_y
 _atom_site_fract_z
 _atom_site_occupancy
  Y  Y0  1  0.60231230  0.20462460  0.75000000  1
  Y  Y1  1  0.39768770  0.79537540  0.25000000  1
  Ge  Ge2  1  0.13314342  0.26628683  0.44063338  1
  Ge  Ge3  1  0.86685658  0.73371317  0.94063338  1
  Ge  Ge4  1  0.13314342  0.26628683  0.05936662  1
  Ge  Ge5  1  0.86685658  0.73371317  0.55936662  1
  Te  Te6  1  0.77692446  0.55384893  0.12728930  1
  Te  Te7  1  0.77692446  0.55384893  0.37271070  1
  Te  Te8  1  0.22307554  0.44615107  0.87271070  1
  Te  Te9  1  0.22307554  0.44615107  0.62728930  1
  Te  Te10  1  0.94548992  0.89097984  0.75000000  1
  Te  Te11  1  0.05451008  0.10902016  0.25000000  1
  Te  Te12  1  0.50000000  0.00000000  0.00000000  1
  Te  Te13  1  0.50000000  0.00000000  0.50000000  1
