# generated using pymatgen
data_Tb6CuIr5
_symmetry_space_group_name_H-M   'P 1'
_cell_length_a   4.90248562
_cell_length_b   8.48528663
_cell_length_c   8.48528638
_cell_angle_alpha   120.65028863
_cell_angle_beta   106.76920713
_cell_angle_gamma   106.76920346
_symmetry_Int_Tables_number   1
_chemical_formula_structural   Tb6CuIr5
_chemical_formula_sum   'Tb6 Cu1 Ir5'
_cell_volume   246.77015353
_cell_formula_units_Z   1
loop_
 _symmetry_equiv_pos_site_id
 _symmetry_equiv_pos_as_xyz
  1  'x, y, z'
loop_
 _atom_site_type_symbol
 _atom_site_label
 _atom_site_symmetry_multiplicity
 _atom_site_fract_x
 _atom_site_fract_y
 _atom_site_fract_z
 _atom_site_occupancy
  Ir  Ir0  1  0.50000100  0.16510179  0.83489921  1
  Ir  Ir1  1  0.00000100  0.33339594  0.66660506  1
  Ir  Ir2  1  0.50000000  0.50000000  0.50000000  1
  Ir  Ir3  1  0.99999900  0.66660406  0.33339494  1
  Ir  Ir4  1  0.49999900  0.83489821  0.16510079  1
  Tb  Tb5  1  0.25118512  0.08307896  0.41923172  1
  Tb  Tb6  1  0.74881488  0.58076828  0.91692104  1
  Tb  Tb7  1  0.75311152  0.25296328  0.25296328  1
  Tb  Tb8  1  0.24688848  0.74703672  0.74703672  1
  Tb  Tb9  1  0.25118512  0.41923172  0.08307896  1
  Tb  Tb10  1  0.74881488  0.91692104  0.58076828  1
  Cu  Cu11  1  0.00000000  0.00000000  0.00000000  1
