# generated using pymatgen
data_Mn(VNi)2
_symmetry_space_group_name_H-M   'P 1'
_cell_length_a   4.11502993
_cell_length_b   4.54764061
_cell_length_c   4.54730632
_cell_angle_alpha   64.05245234
_cell_angle_beta   63.08143009
_cell_angle_gamma   63.08358110
_symmetry_Int_Tables_number   1
_chemical_formula_structural   Mn(VNi)2
_chemical_formula_sum   'Mn1 V2 Ni2'
_cell_volume   64.69652288
_cell_formula_units_Z   1
loop_
 _symmetry_equiv_pos_site_id
 _symmetry_equiv_pos_as_xyz
  1  'x, y, z'
loop_
 _atom_site_type_symbol
 _atom_site_label
 _atom_site_symmetry_multiplicity
 _atom_site_fract_x
 _atom_site_fract_y
 _atom_site_fract_z
 _atom_site_occupancy
  Ni  Ni0  1  0.50001960  0.26594555  0.73401576  1
  Ni  Ni1  1  0.49998040  0.73405445  0.26598424  1
  Mn  Mn2  1  0.00000000  0.00000000  0.00000000  1
  V  V3  1  0.81348611  0.68645150  0.68647699  1
  V  V4  1  0.18651389  0.31354850  0.31352301  1
