# generated using pymatgen
data_CuSi2
_symmetry_space_group_name_H-M   'P 1'
_cell_length_a   6.11404469
_cell_length_b   6.11404469
_cell_length_c   5.56930685
_cell_angle_alpha   72.38448597
_cell_angle_beta   72.38448597
_cell_angle_gamma   25.01349418
_symmetry_Int_Tables_number   1
_chemical_formula_structural   CuSi2
_chemical_formula_sum   'Cu2 Si4'
_cell_volume   83.69288170
_cell_formula_units_Z   2
loop_
 _symmetry_equiv_pos_site_id
 _symmetry_equiv_pos_as_xyz
  1  'x, y, z'
loop_
 _atom_site_type_symbol
 _atom_site_label
 _atom_site_symmetry_multiplicity
 _atom_site_fract_x
 _atom_site_fract_y
 _atom_site_fract_z
 _atom_site_occupancy
  Cu  Cu0  1  0.39537127  0.39537127  0.99007582  1
  Cu  Cu1  1  0.60462873  0.60462873  0.00992418  1
  Si  Si2  1  0.05307297  0.05307297  0.65684156  1
  Si  Si3  1  0.72588365  0.72588365  0.29451171  1
  Si  Si4  1  0.94692703  0.94692703  0.34315844  1
  Si  Si5  1  0.27411635  0.27411635  0.70548829  1
