# generated using pymatgen
data_NiGePd5
_symmetry_space_group_name_H-M   'P 1'
_cell_length_a   6.81034536
_cell_length_b   6.81034536
_cell_length_c   8.52449607
_cell_angle_alpha   48.86002085
_cell_angle_beta   48.86002081
_cell_angle_gamma   59.85089304
_symmetry_Int_Tables_number   1
_chemical_formula_structural   NiGePd5
_chemical_formula_sum   'Ni2 Ge2 Pd10'
_cell_volume   222.55629423
_cell_formula_units_Z   2
loop_
 _symmetry_equiv_pos_site_id
 _symmetry_equiv_pos_as_xyz
  1  'x, y, z'
loop_
 _atom_site_type_symbol
 _atom_site_label
 _atom_site_symmetry_multiplicity
 _atom_site_fract_x
 _atom_site_fract_y
 _atom_site_fract_z
 _atom_site_occupancy
  Ni  Ni0  1  0.00000000  0.00000000  0.00000000  1
  Ni  Ni1  1  0.00000000  0.00000000  0.50000000  1
  Ge  Ge2  1  0.32926771  0.67073229  0.25000000  1
  Ge  Ge3  1  0.67073229  0.32926771  0.75000000  1
  Pd  Pd4  1  0.77187068  0.83904961  0.94583905  1
  Pd  Pd5  1  0.03153046  0.50292209  0.74737394  1
  Pd  Pd6  1  0.83904961  0.77187068  0.44583905  1
  Pd  Pd7  1  0.69406961  0.30593039  0.25000000  1
  Pd  Pd8  1  0.49707791  0.96846954  0.75262606  1
  Pd  Pd9  1  0.50292209  0.03153046  0.24737394  1
  Pd  Pd10  1  0.30593039  0.69406961  0.75000000  1
  Pd  Pd11  1  0.16095039  0.22812932  0.55416095  1
  Pd  Pd12  1  0.96846954  0.49707791  0.25262606  1
  Pd  Pd13  1  0.22812932  0.16095039  0.05416095  1
