# generated using pymatgen
data_Ca2GaSi3Pt4
_symmetry_space_group_name_H-M   'P 1'
_cell_length_a   4.20634292
_cell_length_b   4.20634292
_cell_length_c   10.18686771
_cell_angle_alpha   90.00000000
_cell_angle_beta   90.00000000
_cell_angle_gamma   90.00000000
_symmetry_Int_Tables_number   1
_chemical_formula_structural   Ca2GaSi3Pt4
_chemical_formula_sum   'Ca2 Ga1 Si3 Pt4'
_cell_volume   180.23951794
_cell_formula_units_Z   1
loop_
 _symmetry_equiv_pos_site_id
 _symmetry_equiv_pos_as_xyz
  1  'x, y, z'
loop_
 _atom_site_type_symbol
 _atom_site_label
 _atom_site_symmetry_multiplicity
 _atom_site_fract_x
 _atom_site_fract_y
 _atom_site_fract_z
 _atom_site_occupancy
  Ca  Ca0  1  0.50000000  0.00000000  0.25159256  1
  Ca  Ca1  1  0.00000000  0.50000000  0.74840744  1
  Ga  Ga2  1  0.50000000  0.50000000  0.50000000  1
  Si  Si3  1  0.00000000  0.00000000  0.50000000  1
  Si  Si4  1  0.50000000  0.00000000  0.87002309  1
  Si  Si5  1  0.00000000  0.50000000  0.12997691  1
  Pt  Pt6  1  0.50000000  0.50000000  0.00000000  1
  Pt  Pt7  1  0.00000000  0.00000000  0.00000000  1
  Pt  Pt8  1  0.50000000  0.00000000  0.63597465  1
  Pt  Pt9  1  0.00000000  0.50000000  0.36402535  1
