# generated using pymatgen
data_TeW2Au
_symmetry_space_group_name_H-M   'P 1'
_cell_length_a   5.10224797
_cell_length_b   5.10224797
_cell_length_c   5.10224792
_cell_angle_alpha   132.05171234
_cell_angle_beta   132.05171225
_cell_angle_gamma   70.14729916
_symmetry_Int_Tables_number   1
_chemical_formula_structural   TeW2Au
_chemical_formula_sum   'Te1 W2 Au1'
_cell_volume   71.78991561
_cell_formula_units_Z   1
loop_
 _symmetry_equiv_pos_site_id
 _symmetry_equiv_pos_as_xyz
  1  'x, y, z'
loop_
 _atom_site_type_symbol
 _atom_site_label
 _atom_site_symmetry_multiplicity
 _atom_site_fract_x
 _atom_site_fract_y
 _atom_site_fract_z
 _atom_site_occupancy
  Au  Au0  1  0.50000000  0.50000000  0.00000000  1
  Te  Te1  1  0.75000000  0.25000000  0.50000000  1
  W  W2  1  0.00000000  0.00000000  0.00000000  1
  W  W3  1  0.25000000  0.75000000  0.50000000  1
