# generated using pymatgen
data_SrMo3
_symmetry_space_group_name_H-M   'P 1'
_cell_length_a   4.17747688
_cell_length_b   3.05376531
_cell_length_c   7.12077236
_cell_angle_alpha   77.05102109
_cell_angle_beta   90.00000000
_cell_angle_gamma   90.00000000
_symmetry_Int_Tables_number   1
_chemical_formula_structural   SrMo3
_chemical_formula_sum   'Sr1 Mo3'
_cell_volume   88.52987496
_cell_formula_units_Z   1
loop_
 _symmetry_equiv_pos_site_id
 _symmetry_equiv_pos_as_xyz
  1  'x, y, z'
loop_
 _atom_site_type_symbol
 _atom_site_label
 _atom_site_symmetry_multiplicity
 _atom_site_fract_x
 _atom_site_fract_y
 _atom_site_fract_z
 _atom_site_occupancy
  Mo  Mo0  1  0.00000000  0.01263317  0.90873994  1
  Mo  Mo1  1  0.50000000  0.75000000  0.75000000  1
  Mo  Mo2  1  0.00000000  0.48736684  0.59126006  1
  Sr  Sr3  1  0.50000000  0.25000000  0.25000000  1
