# generated using pymatgen
data_ScCdIn4O8
_symmetry_space_group_name_H-M   'P 1'
_cell_length_a   6.59529073
_cell_length_b   6.59529073
_cell_length_c   6.56603914
_cell_angle_alpha   59.85252059
_cell_angle_beta   59.85252055
_cell_angle_gamma   60.00000005
_symmetry_Int_Tables_number   1
_chemical_formula_structural   ScCdIn4O8
_chemical_formula_sum   'Sc1 Cd1 In4 O8'
_cell_volume   201.50445181
_cell_formula_units_Z   1
loop_
 _symmetry_equiv_pos_site_id
 _symmetry_equiv_pos_as_xyz
  1  'x, y, z'
loop_
 _atom_site_type_symbol
 _atom_site_label
 _atom_site_symmetry_multiplicity
 _atom_site_fract_x
 _atom_site_fract_y
 _atom_site_fract_z
 _atom_site_occupancy
  Sc  Sc0  1  0.00243940  0.00243940  0.99268180  1
  Cd  Cd1  1  0.37543482  0.37543482  0.87369554  1
  In  In2  1  0.62500816  0.62500816  0.12497553  1
  In  In3  1  0.00074486  0.49857900  0.49993128  1
  In  In4  1  0.49857900  0.00074486  0.49993128  1
  In  In5  1  0.00074486  0.00074486  0.49993128  1
  O  O6  1  0.23052825  0.79167263  0.74727087  1
  O  O7  1  0.79167263  0.23052825  0.74727087  1
  O  O8  1  0.23052825  0.23052825  0.74727087  1
  O  O9  1  0.23582084  0.23582084  0.29253747  1
  O  O10  1  0.76525661  0.21616631  0.25332048  1
  O  O11  1  0.21616631  0.76525661  0.25332048  1
  O  O12  1  0.76525661  0.76525661  0.25332048  1
  O  O13  1  0.76182141  0.76182141  0.71453577  1
