# generated using pymatgen
data_Te2OsBr
_symmetry_space_group_name_H-M   'P 1'
_cell_length_a   7.22389254
_cell_length_b   7.22389253
_cell_length_c   7.22389261
_cell_angle_alpha   152.03538277
_cell_angle_beta   140.90901957
_cell_angle_gamma   48.74721261
_symmetry_Int_Tables_number   1
_chemical_formula_structural   Te2OsBr
_chemical_formula_sum   'Te2 Os1 Br1'
_cell_volume   111.02909322
_cell_formula_units_Z   1
loop_
 _symmetry_equiv_pos_site_id
 _symmetry_equiv_pos_as_xyz
  1  'x, y, z'
loop_
 _atom_site_type_symbol
 _atom_site_label
 _atom_site_symmetry_multiplicity
 _atom_site_fract_x
 _atom_site_fract_y
 _atom_site_fract_z
 _atom_site_occupancy
  Te  Te0  1  0.89778996  0.89778996  1.00000000  1
  Te  Te1  1  0.26274579  0.76274579  0.50000000  1
  Os  Os2  1  0.75063656  0.25063656  0.50000000  1
  Br  Br3  1  0.58882768  0.58882768  0.00000000  1
