# generated using pymatgen
data_TiInH
_symmetry_space_group_name_H-M   'P 1'
_cell_length_a   3.69699434
_cell_length_b   3.69699434
_cell_length_c   25.28413397
_cell_angle_alpha   94.65332403
_cell_angle_beta   94.65332403
_cell_angle_gamma   89.98207049
_symmetry_Int_Tables_number   1
_chemical_formula_structural   TiInH
_chemical_formula_sum   'Ti8 In8 H8'
_cell_volume   343.29639496
_cell_formula_units_Z   8
loop_
 _symmetry_equiv_pos_site_id
 _symmetry_equiv_pos_as_xyz
  1  'x, y, z'
loop_
 _atom_site_type_symbol
 _atom_site_label
 _atom_site_symmetry_multiplicity
 _atom_site_fract_x
 _atom_site_fract_y
 _atom_site_fract_z
 _atom_site_occupancy
  H  H0  1  0.54558216  0.49451898  0.03701484  1
  H  H1  1  0.50548102  0.45441784  0.96298516  1
  H  H2  1  0.80029297  0.34981536  0.46825527  1
  H  H3  1  0.65018464  0.19970703  0.53174473  1
  H  H4  1  0.67574646  0.12755293  0.25463996  1
  H  H5  1  0.87244707  0.32425354  0.74536004  1
  H  H6  1  0.17576876  0.62905293  0.25451328  1
  H  H7  1  0.37094707  0.82423124  0.74548672  1
  Ti  Ti8  1  0.02621612  0.47382707  0.99999099  1
  Ti  Ti9  1  0.52617293  0.97378388  0.00000901  1
  Ti  Ti10  1  0.30366160  0.19586304  0.47521203  1
  Ti  Ti11  1  0.80413696  0.69633840  0.52478797  1
  Ti  Ti12  1  0.35929051  0.31041662  0.72105168  1
  Ti  Ti13  1  0.68958338  0.64070949  0.27894832  1
  Ti  Ti14  1  0.88395946  0.83784967  0.76944534  1
  Ti  Ti15  1  0.16215033  0.11604054  0.23055466  1
  In  In16  1  0.27898429  0.23794998  0.59336478  1
  In  In17  1  0.76205002  0.72101571  0.40663522  1
  In  In18  1  0.42287911  0.37637482  0.83628362  1
  In  In19  1  0.62362518  0.57712089  0.16371638  1
  In  In20  1  0.08368723  0.03395999  0.09858211  1
  In  In21  1  0.96604001  0.91631277  0.90141789  1
  In  In22  1  0.22754829  0.18623254  0.34645418  1
  In  In23  1  0.81376746  0.77245171  0.65354582  1
