# generated using pymatgen
data_AsPRh
_symmetry_space_group_name_H-M   'P 1'
_cell_length_a   3.49157608
_cell_length_b   3.33535744
_cell_length_c   9.66598879
_cell_angle_alpha   90.00000000
_cell_angle_beta   90.00000000
_cell_angle_gamma   90.00000000
_symmetry_Int_Tables_number   1
_chemical_formula_structural   AsPRh
_chemical_formula_sum   'As2 P2 Rh2'
_cell_volume   112.56676349
_cell_formula_units_Z   2
loop_
 _symmetry_equiv_pos_site_id
 _symmetry_equiv_pos_as_xyz
  1  'x, y, z'
loop_
 _atom_site_type_symbol
 _atom_site_label
 _atom_site_symmetry_multiplicity
 _atom_site_fract_x
 _atom_site_fract_y
 _atom_site_fract_z
 _atom_site_occupancy
  As  As0  1  0.50000000  0.00000000  0.82543007  1
  As  As1  1  0.50000000  0.50000000  0.32543007  1
  P  P2  1  0.50000000  0.00000000  0.16081998  1
  P  P3  1  0.50000000  0.50000000  0.66081998  1
  Rh  Rh4  1  0.00000000  0.00000000  0.00584995  1
  Rh  Rh5  1  0.00000000  0.50000000  0.50584995  1
