# generated using pymatgen
data_K(SnTe)2
_symmetry_space_group_name_H-M   'P 1'
_cell_length_a   8.95708170
_cell_length_b   8.95708170
_cell_length_c   4.24793381
_cell_angle_alpha   90.00000000
_cell_angle_beta   90.00000000
_cell_angle_gamma   90.00000000
_symmetry_Int_Tables_number   1
_chemical_formula_structural   K(SnTe)2
_chemical_formula_sum   'K2 Sn4 Te4'
_cell_volume   340.80880946
_cell_formula_units_Z   2
loop_
 _symmetry_equiv_pos_site_id
 _symmetry_equiv_pos_as_xyz
  1  'x, y, z'
loop_
 _atom_site_type_symbol
 _atom_site_label
 _atom_site_symmetry_multiplicity
 _atom_site_fract_x
 _atom_site_fract_y
 _atom_site_fract_z
 _atom_site_occupancy
  K  K0  1  0.00000000  0.00000000  0.00000000  1
  K  K1  1  0.50000000  0.50000000  0.00000000  1
  Te  Te2  1  0.34114394  0.84114394  0.00000000  1
  Te  Te3  1  0.84114394  0.65885606  0.00000000  1
  Te  Te4  1  0.65885606  0.15885606  0.00000000  1
  Te  Te5  1  0.15885606  0.34114394  0.00000000  1
  Sn  Sn6  1  0.12588308  0.62588308  0.50000000  1
  Sn  Sn7  1  0.62588308  0.87411692  0.50000000  1
  Sn  Sn8  1  0.87411692  0.37411692  0.50000000  1
  Sn  Sn9  1  0.37411692  0.12588308  0.50000000  1
