# generated using pymatgen
data_HfNiSe3
_symmetry_space_group_name_H-M   'P 1'
_cell_length_a   7.22987371
_cell_length_b   6.21182422
_cell_length_c   18.54427292
_cell_angle_alpha   90.00000000
_cell_angle_beta   90.00000000
_cell_angle_gamma   30.74887608
_symmetry_Int_Tables_number   1
_chemical_formula_structural   HfNiSe3
_chemical_formula_sum   'Hf1 Ni1 Se3'
_cell_volume   425.80943421
_cell_formula_units_Z   1
loop_
 _symmetry_equiv_pos_site_id
 _symmetry_equiv_pos_as_xyz
  1  'x, y, z'
loop_
 _atom_site_type_symbol
 _atom_site_label
 _atom_site_symmetry_multiplicity
 _atom_site_fract_x
 _atom_site_fract_y
 _atom_site_fract_z
 _atom_site_occupancy
  Hf  Hf0  1  0.13708940  0.81564132  0.50000003  1
  Ni  Ni1  1  0.63780558  0.95236560  0.50000006  1
  Se  Se2  1  0.63764254  0.20927317  0.59556249  1
  Se  Se3  1  0.63764246  0.20927330  0.40443756  1
  Se  Se4  1  0.13790004  0.23138659  0.49999986  1
