# generated using pymatgen
data_K9Gd3Si12(O16F)2
_symmetry_space_group_name_H-M   'P 1'
_cell_length_a   6.96518603
_cell_length_b   11.54978149
_cell_length_c   11.58979348
_cell_angle_alpha   87.81288449
_cell_angle_beta   89.71861816
_cell_angle_gamma   80.33148885
_symmetry_Int_Tables_number   1
_chemical_formula_structural   K9Gd3Si12(O16F)2
_chemical_formula_sum   'K9 Gd3 Si12 O32 F2'
_cell_volume   918.44300391
_cell_formula_units_Z   1
loop_
 _symmetry_equiv_pos_site_id
 _symmetry_equiv_pos_as_xyz
  1  'x, y, z'
loop_
 _atom_site_type_symbol
 _atom_site_label
 _atom_site_symmetry_multiplicity
 _atom_site_fract_x
 _atom_site_fract_y
 _atom_site_fract_z
 _atom_site_occupancy
  K  K0  1  0.77151230  0.11604594  0.51774140  1
  K  K1  1  0.22848770  0.88395406  0.48225860  1
  K  K2  1  0.66938488  0.30835996  0.27769715  1
  K  K3  1  0.33061512  0.69164004  0.72230285  1
  K  K4  1  0.33701392  0.65124617  0.28678690  1
  K  K5  1  0.66298608  0.34875383  0.71321310  1
  K  K6  1  0.00000000  0.50000000  0.50000000  1
  K  K7  1  0.51696293  0.83068326  0.00878338  1
  K  K8  1  0.48303707  0.16931674  0.99121662  1
  Gd  Gd9  1  0.01323696  0.01057934  0.16437037  1
  Gd  Gd10  1  0.98676304  0.98942066  0.83562963  1
  Gd  Gd11  1  0.50000000  0.50000000  0.00000000  1
  Si  Si12  1  0.21449834  0.16740672  0.38016852  1
  Si  Si13  1  0.78550166  0.83259328  0.61983148  1
  Si  Si14  1  0.19110844  0.19537770  0.65872511  1
  Si  Si15  1  0.80889156  0.80462230  0.34127489  1
  Si  Si16  1  0.51572502  0.01385248  0.24328679  1
  Si  Si17  1  0.48427498  0.98614752  0.75671321  1
  Si  Si18  1  0.15589798  0.40866303  0.80327134  1
  Si  Si19  1  0.84410202  0.59133697  0.19672866  1
  Si  Si20  1  0.05604808  0.73150470  0.01061947  1
  Si  Si21  1  0.94395192  0.26849530  0.98938053  1
  Si  Si22  1  0.16096344  0.36533557  0.18976214  1
  Si  Si23  1  0.83903656  0.63466443  0.81023786  1
  O  O24  1  0.35435533  0.37526671  0.11845052  1
  O  O25  1  0.64564467  0.62473329  0.88154948  1
  O  O26  1  0.65885937  0.53272476  0.16765469  1
  O  O27  1  0.34114063  0.46727524  0.83234531  1
  O  O28  1  0.20091924  0.18778507  0.51847829  1
  O  O29  1  0.79908076  0.81221493  0.48152171  1
  O  O30  1  0.68913972  0.07407014  0.18761881  1
  O  O31  1  0.31086028  0.92592986  0.81238119  1
  O  O32  1  0.40310552  0.12444921  0.70895246  1
  O  O33  1  0.59689448  0.87555079  0.29104754  1
  O  O34  1  0.43377212  0.08697184  0.36141900  1
  O  O35  1  0.56622788  0.91302816  0.63858100  1
  O  O36  1  0.27197584  0.66358402  0.04143496  1
  O  O37  1  0.72802416  0.33641598  0.95856504  1
  O  O38  1  0.00662446  0.29506909  0.12473996  1
  O  O39  1  0.99337554  0.70493091  0.87526004  1
  O  O40  1  0.02960524  0.87433122  0.01444737  1
  O  O41  1  0.97039476  0.12566878  0.98555263  1
  O  O42  1  0.04244483  0.10285265  0.33817970  1
  O  O43  1  0.95755517  0.89714735  0.66182030  1
  O  O44  1  0.21541447  0.29797722  0.31705010  1
  O  O45  1  0.78458553  0.70202278  0.68294990  1
  O  O46  1  0.19368575  0.33575488  0.68226610  1
  O  O47  1  0.80631425  0.66424512  0.31773390  1
  O  O48  1  0.00397578  0.14889154  0.71240144  1
  O  O49  1  0.99602422  0.85110846  0.28759856  1
  O  O50  1  0.04337969  0.49557109  0.22701855  1
  O  O51  1  0.95662031  0.50442891  0.77298145  1
  O  O52  1  0.11216990  0.31494469  0.90593655  1
  O  O53  1  0.88783010  0.68505531  0.09406345  1
  O  O54  1  0.34006099  0.00914616  0.15401676  1
  O  O55  1  0.65993901  0.99085384  0.84598324  1
  F  F56  1  0.25596908  0.65612530  0.50458476  1
  F  F57  1  0.74403092  0.34387470  0.49541524  1
