# generated using pymatgen
data_TaRe2W
_symmetry_space_group_name_H-M   'P 1'
_cell_length_a   5.25208077
_cell_length_b   5.25208076
_cell_length_c   2.76098017
_cell_angle_alpha   79.55686445
_cell_angle_beta   79.55686453
_cell_angle_gamma   116.63462937
_symmetry_Int_Tables_number   1
_chemical_formula_structural   TaRe2W
_chemical_formula_sum   'Ta1 Re2 W1'
_cell_volume   63.89533464
_cell_formula_units_Z   1
loop_
 _symmetry_equiv_pos_site_id
 _symmetry_equiv_pos_as_xyz
  1  'x, y, z'
loop_
 _atom_site_type_symbol
 _atom_site_label
 _atom_site_symmetry_multiplicity
 _atom_site_fract_x
 _atom_site_fract_y
 _atom_site_fract_z
 _atom_site_occupancy
  Re  Re0  1  0.00000000  0.00000000  0.00000000  1
  Re  Re1  1  0.50000000  0.50000000  0.00000000  1
  Ta  Ta2  1  0.50000000  -0.00000000  0.50000000  1
  W  W3  1  0.00000000  0.50000000  0.50000000  1
