# generated using pymatgen
data_La3B2Rh9Au
_symmetry_space_group_name_H-M   'P 1'
_cell_length_a   5.86371606
_cell_length_b   5.86371606
_cell_length_c   9.00976217
_cell_angle_alpha   90.00000000
_cell_angle_beta   90.00000000
_cell_angle_gamma   119.99999999
_symmetry_Int_Tables_number   1
_chemical_formula_structural   La3B2Rh9Au
_chemical_formula_sum   'La3 B2 Rh9 Au1'
_cell_volume   268.28094246
_cell_formula_units_Z   1
loop_
 _symmetry_equiv_pos_site_id
 _symmetry_equiv_pos_as_xyz
  1  'x, y, z'
loop_
 _atom_site_type_symbol
 _atom_site_label
 _atom_site_symmetry_multiplicity
 _atom_site_fract_x
 _atom_site_fract_y
 _atom_site_fract_z
 _atom_site_occupancy
  La  La0  1  0.33333333  0.66666667  0.65218624  1
  La  La1  1  0.00000000  0.00000000  0.00000000  1
  La  La2  1  0.66666667  0.33333333  0.34781376  1
  B  B3  1  0.33333333  0.66666667  0.14351338  1
  B  B4  1  0.66666667  0.33333333  0.85648662  1
  Rh  Rh5  1  0.83646472  0.16353528  0.73228100  1
  Rh  Rh6  1  0.83646472  0.67292944  0.73228100  1
  Rh  Rh7  1  0.32707056  0.16353528  0.73228100  1
  Rh  Rh8  1  0.67292944  0.83646472  0.26771900  1
  Rh  Rh9  1  0.16353528  0.32707056  0.26771900  1
  Rh  Rh10  1  0.16353528  0.83646472  0.26771900  1
  Rh  Rh11  1  0.50000000  0.00000000  0.00000000  1
  Rh  Rh12  1  0.00000000  0.50000000  0.00000000  1
  Rh  Rh13  1  0.50000000  0.50000000  0.00000000  1
  Au  Au14  1  0.00000000  0.00000000  0.50000000  1
