# generated using pymatgen
data_Pu3Te12Pb5
_symmetry_space_group_name_H-M   'P 1'
_cell_length_a   15.86042102
_cell_length_b   15.86042102
_cell_length_c   15.86042103
_cell_angle_alpha   109.47122062
_cell_angle_beta   109.47122064
_cell_angle_gamma   109.47122065
_symmetry_Int_Tables_number   1
_chemical_formula_structural   Pu3Te12Pb5
_chemical_formula_sum   'Pu12 Te48 Pb20'
_cell_volume   3071.30003186
_cell_formula_units_Z   4
loop_
 _symmetry_equiv_pos_site_id
 _symmetry_equiv_pos_as_xyz
  1  'x, y, z'
loop_
 _atom_site_type_symbol
 _atom_site_label
 _atom_site_symmetry_multiplicity
 _atom_site_fract_x
 _atom_site_fract_y
 _atom_site_fract_z
 _atom_site_occupancy
  Pu  Pu0  1  0.75000000  0.37500000  0.12500000  1
  Pu  Pu1  1  0.87500000  0.75000000  0.12500000  1
  Pu  Pu2  1  0.37500000  0.75000000  0.62500000  1
  Pu  Pu3  1  0.25000000  0.12500000  0.37500000  1
  Pu  Pu4  1  0.87500000  0.12500000  0.25000000  1
  Pu  Pu5  1  0.37500000  0.62500000  0.25000000  1
  Pu  Pu6  1  0.62500000  0.37500000  0.75000000  1
  Pu  Pu7  1  0.12500000  0.87500000  0.75000000  1
  Pu  Pu8  1  0.75000000  0.87500000  0.62500000  1
  Pu  Pu9  1  0.62500000  0.25000000  0.37500000  1
  Pu  Pu10  1  0.12500000  0.25000000  0.87500000  1
  Pu  Pu11  1  0.25000000  0.62500000  0.87500000  1
  Pb  Pb12  1  0.12500000  0.37500000  0.25000000  1
  Pb  Pb13  1  0.00000000  0.50000000  0.00000000  1
  Pb  Pb14  1  0.00000000  0.00000000  0.00000000  1
  Pb  Pb15  1  0.37500000  0.25000000  0.12500000  1
  Pb  Pb16  1  0.50000000  0.00000000  0.50000000  1
  Pb  Pb17  1  0.50000000  0.50000000  0.00000000  1
  Pb  Pb18  1  0.12500000  0.75000000  0.37500000  1
  Pb  Pb19  1  0.75000000  0.12500000  0.87500000  1
  Pb  Pb20  1  0.75000000  0.62500000  0.37500000  1
  Pb  Pb21  1  0.37500000  0.12500000  0.75000000  1
  Pb  Pb22  1  0.62500000  0.87500000  0.25000000  1
  Pb  Pb23  1  0.50000000  0.50000000  0.50000000  1
  Pb  Pb24  1  0.50000000  0.00000000  0.00000000  1
  Pb  Pb25  1  0.00000000  0.00000000  0.50000000  1
  Pb  Pb26  1  0.25000000  0.37500000  0.62500000  1
  Pb  Pb27  1  0.25000000  0.87500000  0.12500000  1
  Pb  Pb28  1  0.00000000  0.50000000  0.50000000  1
  Pb  Pb29  1  0.87500000  0.25000000  0.62500000  1
  Pb  Pb30  1  0.62500000  0.75000000  0.87500000  1
  Pb  Pb31  1  0.87500000  0.62500000  0.75000000  1
  Te  Te32  1  0.72903649  0.14337706  0.06061013  1
  Te  Te33  1  0.33157363  0.56061013  0.41723307  1
  Te  Te34  1  0.93938987  0.35662294  0.27096351  1
  Te  Te35  1  0.56061013  0.22903649  0.14337706  1
  Te  Te36  1  0.58565943  0.72903649  0.66842637  1
  Te  Te37  1  0.93938987  0.58276693  0.16842637  1
  Te  Te38  1  0.33157363  0.77096351  0.41434057  1
  Te  Te39  1  0.08276693  0.91434057  0.14337706  1
  Te  Te40  1  0.58276693  0.93938987  0.66842637  1
  Te  Te41  1  0.72903649  0.58565943  0.16842637  1
  Te  Te42  1  0.77096351  0.43938987  0.35662294  1
  Te  Te43  1  0.83157363  0.91723307  0.06061013  1
  Te  Te44  1  0.14337706  0.72903649  0.56061013  1
  Te  Te45  1  0.35662294  0.41723307  0.08565943  1
  Te  Te46  1  0.08565943  0.91723307  0.35662294  1
  Te  Te47  1  0.41434057  0.14337706  0.58276693  1
  Te  Te48  1  0.08565943  0.16842637  0.22903649  1
  Te  Te49  1  0.43938987  0.66842637  0.08276693  1
  Te  Te50  1  0.83157363  0.91434057  0.27096351  1
  Te  Te51  1  0.14337706  0.41434057  0.08276693  1
  Te  Te52  1  0.35662294  0.93938987  0.77096351  1
  Te  Te53  1  0.58276693  0.64337706  0.41434057  1
  Te  Te54  1  0.91723307  0.83157363  0.56061013  1
  Te  Te55  1  0.77096351  0.33157363  0.91434057  1
  Te  Te56  1  0.41723307  0.35662294  0.58565943  1
  Te  Te57  1  0.08276693  0.16842637  0.43938987  1
  Te  Te58  1  0.22903649  0.66842637  0.08565943  1
  Te  Te59  1  0.16842637  0.08565943  0.72903649  1
  Te  Te60  1  0.64337706  0.06061013  0.22903649  1
  Te  Te61  1  0.85662294  0.58565943  0.91723307  1
  Te  Te62  1  0.56061013  0.33157363  0.91723307  1
  Te  Te63  1  0.58565943  0.85662294  0.41723307  1
  Te  Te64  1  0.91434057  0.83157363  0.77096351  1
  Te  Te65  1  0.91434057  0.08276693  0.64337706  1
  Te  Te66  1  0.85662294  0.27096351  0.43938987  1
  Te  Te67  1  0.16842637  0.08276693  0.93938987  1
  Te  Te68  1  0.64337706  0.58276693  0.91434057  1
  Te  Te69  1  0.41723307  0.06061013  0.33157363  1
  Te  Te70  1  0.27096351  0.41434057  0.83157363  1
  Te  Te71  1  0.22903649  0.56061013  0.64337706  1
  Te  Te72  1  0.91723307  0.08565943  0.85662294  1
  Te  Te73  1  0.66842637  0.22903649  0.58565943  1
  Te  Te74  1  0.43938987  0.77096351  0.85662294  1
  Te  Te75  1  0.06061013  0.41723307  0.83157363  1
  Te  Te76  1  0.41434057  0.27096351  0.33157363  1
  Te  Te77  1  0.06061013  0.64337706  0.72903649  1
  Te  Te78  1  0.66842637  0.43938987  0.58276693  1
  Te  Te79  1  0.27096351  0.85662294  0.93938987  1
