# generated using pymatgen
data_KUCoS3
_symmetry_space_group_name_H-M   'P 1'
_cell_length_a   3.82320803
_cell_length_b   8.85843803
_cell_length_c   9.03660201
_cell_angle_alpha   109.80606660
_cell_angle_beta   90.00000000
_cell_angle_gamma   90.00000000
_symmetry_Int_Tables_number   1
_chemical_formula_structural   KUCoS3
_chemical_formula_sum   'K2 U2 Co2 S6'
_cell_volume   287.94415723
_cell_formula_units_Z   2
loop_
 _symmetry_equiv_pos_site_id
 _symmetry_equiv_pos_as_xyz
  1  'x, y, z'
loop_
 _atom_site_type_symbol
 _atom_site_label
 _atom_site_symmetry_multiplicity
 _atom_site_fract_x
 _atom_site_fract_y
 _atom_site_fract_z
 _atom_site_occupancy
  K  K0  1  0.25000000  0.19980292  0.23965938  1
  K  K1  1  0.75000000  0.80019708  0.76034062  1
  U  U2  1  0.25000000  0.67991941  0.16403540  1
  U  U3  1  0.75000000  0.32008059  0.83596460  1
  Co  Co4  1  0.25000000  0.08209019  0.59040793  1
  Co  Co5  1  0.75000000  0.91790981  0.40959207  1
  S  S6  1  0.75000000  0.88147546  0.14681046  1
  S  S7  1  0.25000000  0.11852454  0.85318954  1
  S  S8  1  0.25000000  0.81659157  0.47227735  1
  S  S9  1  0.75000000  0.18340843  0.52772265  1
  S  S10  1  0.75000000  0.45791337  0.15758660  1
  S  S11  1  0.25000000  0.54208663  0.84241340  1
