# generated using pymatgen
data_Ba3Pa3SnN8
_symmetry_space_group_name_H-M   'P 1'
_cell_length_a   7.12436772
_cell_length_b   7.12536734
_cell_length_c   7.64854135
_cell_angle_alpha   117.76947862
_cell_angle_beta   89.99859422
_cell_angle_gamma   119.98405598
_symmetry_Int_Tables_number   1
_chemical_formula_structural   Ba3Pa3SnN8
_chemical_formula_sum   'Ba3 Pa3 Sn1 N8'
_cell_volume   283.50922740
_cell_formula_units_Z   1
loop_
 _symmetry_equiv_pos_site_id
 _symmetry_equiv_pos_as_xyz
  1  'x, y, z'
loop_
 _atom_site_type_symbol
 _atom_site_label
 _atom_site_symmetry_multiplicity
 _atom_site_fract_x
 _atom_site_fract_y
 _atom_site_fract_z
 _atom_site_occupancy
  Ba  Ba0  1  0.00000000  0.00000000  0.00000000  1
  Ba  Ba1  1  -0.00000000  0.50000000  0.00000000  1
  Ba  Ba2  1  0.50000000  0.50000000  0.00000000  1
  Pa  Pa3  1  0.50000000  0.00000000  0.50000000  1
  Pa  Pa4  1  0.50000000  0.50000000  0.50000000  1
  Pa  Pa5  1  -0.00000000  0.50000000  0.50000000  1
  Sn  Sn6  1  0.00000000  0.00000000  0.50000000  1
  N  N7  1  0.27394582  0.54781968  0.32192176  1
  N  N8  1  0.72605418  0.45218032  0.67807824  1
  N  N9  1  0.77231655  0.54460321  0.32722896  1
  N  N10  1  0.22768345  0.45539679  0.67277104  1
  N  N11  1  0.77219031  0.05503723  0.32723843  1
  N  N12  1  0.22780969  0.94496277  0.67276157  1
  N  N13  1  0.28283769  0.05497592  0.32718542  1
  N  N14  1  0.71716231  0.94502408  0.67281458  1
