# generated using pymatgen
data_Nb2GeH
_symmetry_space_group_name_H-M   'P 1'
_cell_length_a   6.15915722
_cell_length_b   6.15915722
_cell_length_c   5.26644151
_cell_angle_alpha   54.21430810
_cell_angle_beta   54.21430810
_cell_angle_gamma   90.00000000
_symmetry_Int_Tables_number   1
_chemical_formula_structural   Nb2GeH
_chemical_formula_sum   'Nb4 Ge2 H2'
_cell_volume   112.32794955
_cell_formula_units_Z   2
loop_
 _symmetry_equiv_pos_site_id
 _symmetry_equiv_pos_as_xyz
  1  'x, y, z'
loop_
 _atom_site_type_symbol
 _atom_site_label
 _atom_site_symmetry_multiplicity
 _atom_site_fract_x
 _atom_site_fract_y
 _atom_site_fract_z
 _atom_site_occupancy
  H  H0  1  0.50000000  0.50000000  0.00000000  1
  H  H1  1  0.25000000  0.75000000  0.50000000  1
  Nb  Nb2  1  0.53811169  0.12500000  0.25000000  1
  Nb  Nb3  1  0.21188831  0.62500000  0.25000000  1
  Nb  Nb4  1  0.37500000  0.46188831  0.75000000  1
  Nb  Nb5  1  0.87500000  0.78811169  0.75000000  1
  Ge  Ge6  1  0.00000000  0.00000000  0.00000000  1
  Ge  Ge7  1  0.75000000  0.25000000  0.50000000  1
