# generated using pymatgen
data_YSc2Ir3
_symmetry_space_group_name_H-M   'P 1'
_cell_length_a   3.18505022
_cell_length_b   3.18505022
_cell_length_c   10.57758063
_cell_angle_alpha   90.00000000
_cell_angle_beta   90.00000000
_cell_angle_gamma   90.00000000
_symmetry_Int_Tables_number   1
_chemical_formula_structural   YSc2Ir3
_chemical_formula_sum   'Y1 Sc2 Ir3'
_cell_volume   107.30474168
_cell_formula_units_Z   1
loop_
 _symmetry_equiv_pos_site_id
 _symmetry_equiv_pos_as_xyz
  1  'x, y, z'
loop_
 _atom_site_type_symbol
 _atom_site_label
 _atom_site_symmetry_multiplicity
 _atom_site_fract_x
 _atom_site_fract_y
 _atom_site_fract_z
 _atom_site_occupancy
  Y  Y0  1  0.50000000  0.50000000  0.50000000  1
  Sc  Sc1  1  0.50000000  0.50000000  0.84022627  1
  Sc  Sc2  1  0.50000000  0.50000000  0.15977373  1
  Ir  Ir3  1  0.00000000  0.00000000  0.00000000  1
  Ir  Ir4  1  0.00000000  0.00000000  0.68565395  1
  Ir  Ir5  1  0.00000000  0.00000000  0.31434605  1
