# generated using pymatgen
data_SrFe2Co2O7
_symmetry_space_group_name_H-M   'P 1'
_cell_length_a   4.07146652
_cell_length_b   4.13067402
_cell_length_c   8.50653326
_cell_angle_alpha   103.93045228
_cell_angle_beta   103.84606090
_cell_angle_gamma   90.00000000
_symmetry_Int_Tables_number   1
_chemical_formula_structural   SrFe2Co2O7
_chemical_formula_sum   'Sr1 Fe2 Co2 O7'
_cell_volume   134.56740122
_cell_formula_units_Z   1
loop_
 _symmetry_equiv_pos_site_id
 _symmetry_equiv_pos_as_xyz
  1  'x, y, z'
loop_
 _atom_site_type_symbol
 _atom_site_label
 _atom_site_symmetry_multiplicity
 _atom_site_fract_x
 _atom_site_fract_y
 _atom_site_fract_z
 _atom_site_occupancy
  Sr  Sr0  1  0.00017344  0.00036388  0.00034687  1
  Fe  Fe1  1  0.38221658  0.38241941  0.76443315  1
  Fe  Fe2  1  0.61777739  0.61757274  0.23555478  1
  Co  Co3  1  0.25186518  0.75228071  0.50373036  1
  Co  Co4  1  0.74811987  0.24762235  0.49623973  1
  O  O5  1  0.37196767  0.87270110  0.74393434  1
  O  O6  1  0.74319129  0.74398031  0.48638358  1
  O  O7  1  0.12820286  0.62612013  0.25640573  1
  O  O8  1  0.62796147  0.12715851  0.25592394  1
  O  O9  1  0.25678142  0.25593412  0.51356183  1
  O  O10  1  0.87174553  0.37381244  0.74349106  1
  O  O11  1  0.49999730  0.49971931  0.99999461  1
