# generated using pymatgen
data_Ba(AuCl3)4
_symmetry_space_group_name_H-M   'P 1'
_cell_length_a   8.54050582
_cell_length_b   8.54050582
_cell_length_c   8.54050582
_cell_angle_alpha   109.47122064
_cell_angle_beta   109.47122062
_cell_angle_gamma   109.47122061
_symmetry_Int_Tables_number   1
_chemical_formula_structural   Ba(AuCl3)4
_chemical_formula_sum   'Ba1 Au4 Cl12'
_cell_volume   479.54447121
_cell_formula_units_Z   1
loop_
 _symmetry_equiv_pos_site_id
 _symmetry_equiv_pos_as_xyz
  1  'x, y, z'
loop_
 _atom_site_type_symbol
 _atom_site_label
 _atom_site_symmetry_multiplicity
 _atom_site_fract_x
 _atom_site_fract_y
 _atom_site_fract_z
 _atom_site_occupancy
  Ba  Ba0  1  0.00000000  0.00000000  0.00000000  1
  Au  Au1  1  -0.00000000  0.50000000  0.00000000  1
  Au  Au2  1  0.50000000  0.00000000  0.00000000  1
  Au  Au3  1  0.50000000  0.50000000  0.50000000  1
  Au  Au4  1  -0.00000000  -0.00000000  0.50000000  1
  Cl  Cl5  1  0.79951758  0.27864800  0.07816458  1
  Cl  Cl6  1  0.27864700  0.47913041  0.20048242  1
  Cl  Cl7  1  0.92183542  0.20048242  0.72135200  1
  Cl  Cl8  1  0.27864800  0.07816458  0.79951758  1
  Cl  Cl9  1  0.07816458  0.79951758  0.27864800  1
  Cl  Cl10  1  0.72135300  0.52086959  0.79951758  1
  Cl  Cl11  1  0.47913041  0.20048342  0.27864700  1
  Cl  Cl12  1  0.52086959  0.79951658  0.72135300  1
  Cl  Cl13  1  0.72135200  0.92183542  0.20048242  1
  Cl  Cl14  1  0.79951658  0.72135200  0.52086959  1
  Cl  Cl15  1  0.20048342  0.27864800  0.47913141  1
  Cl  Cl16  1  0.20048342  0.72135300  0.92183642  1
