# generated using pymatgen
data_ScHg
_symmetry_space_group_name_H-M   'P 1'
_cell_length_a   11.33777226
_cell_length_b   8.91064021
_cell_length_c   7.52696873
_cell_angle_alpha   90.00000000
_cell_angle_beta   90.00000000
_cell_angle_gamma   90.00000000
_symmetry_Int_Tables_number   1
_chemical_formula_structural   ScHg
_chemical_formula_sum   'Sc16 Hg16'
_cell_volume   760.42563518
_cell_formula_units_Z   16
loop_
 _symmetry_equiv_pos_site_id
 _symmetry_equiv_pos_as_xyz
  1  'x, y, z'
loop_
 _atom_site_type_symbol
 _atom_site_label
 _atom_site_symmetry_multiplicity
 _atom_site_fract_x
 _atom_site_fract_y
 _atom_site_fract_z
 _atom_site_occupancy
  Sc  Sc0  1  0.00000000  0.19671139  0.00000000  1
  Sc  Sc1  1  0.00000000  0.80328861  0.00000000  1
  Sc  Sc2  1  0.25000000  0.55328861  0.25000000  1
  Sc  Sc3  1  0.25000000  0.94671139  0.25000000  1
  Sc  Sc4  1  0.00000000  0.69671139  0.50000000  1
  Sc  Sc5  1  0.00000000  0.30328861  0.50000000  1
  Sc  Sc6  1  0.25000000  0.05328861  0.75000000  1
  Sc  Sc7  1  0.25000000  0.44671139  0.75000000  1
  Sc  Sc8  1  0.50000000  0.19671139  0.50000000  1
  Sc  Sc9  1  0.50000000  0.80328861  0.50000000  1
  Sc  Sc10  1  0.75000000  0.55328861  0.75000000  1
  Sc  Sc11  1  0.75000000  0.94671139  0.75000000  1
  Sc  Sc12  1  0.50000000  0.69671139  0.00000000  1
  Sc  Sc13  1  0.50000000  0.30328861  0.00000000  1
  Sc  Sc14  1  0.75000000  0.05328861  0.25000000  1
  Sc  Sc15  1  0.75000000  0.44671139  0.25000000  1
  Hg  Hg16  1  0.00000000  0.00000000  0.31005774  1
  Hg  Hg17  1  0.00000000  0.00000000  0.68994226  1
  Hg  Hg18  1  0.25000000  0.75000000  0.93994226  1
  Hg  Hg19  1  0.25000000  0.75000000  0.56005774  1
  Hg  Hg20  1  0.00000000  0.50000000  0.81005774  1
  Hg  Hg21  1  0.00000000  0.50000000  0.18994226  1
  Hg  Hg22  1  0.25000000  0.25000000  0.43994226  1
  Hg  Hg23  1  0.25000000  0.25000000  0.06005774  1
  Hg  Hg24  1  0.50000000  0.00000000  0.81005774  1
  Hg  Hg25  1  0.50000000  0.00000000  0.18994226  1
  Hg  Hg26  1  0.75000000  0.75000000  0.43994226  1
  Hg  Hg27  1  0.75000000  0.75000000  0.06005774  1
  Hg  Hg28  1  0.50000000  0.50000000  0.31005774  1
  Hg  Hg29  1  0.50000000  0.50000000  0.68994226  1
  Hg  Hg30  1  0.75000000  0.25000000  0.93994226  1
  Hg  Hg31  1  0.75000000  0.25000000  0.56005774  1
