# generated using pymatgen
data_CaAg2Br
_symmetry_space_group_name_H-M   'P 1'
_cell_length_a   7.49128970
_cell_length_b   7.49128970
_cell_length_c   7.49128970
_cell_angle_alpha   33.07207307
_cell_angle_beta   33.07207304
_cell_angle_gamma   33.07207299
_symmetry_Int_Tables_number   1
_chemical_formula_structural   CaAg2Br
_chemical_formula_sum   'Ca1 Ag2 Br1'
_cell_volume   111.42076437
_cell_formula_units_Z   1
loop_
 _symmetry_equiv_pos_site_id
 _symmetry_equiv_pos_as_xyz
  1  'x, y, z'
loop_
 _atom_site_type_symbol
 _atom_site_label
 _atom_site_symmetry_multiplicity
 _atom_site_fract_x
 _atom_site_fract_y
 _atom_site_fract_z
 _atom_site_occupancy
  Ca  Ca0  1  0.75000000  0.75000000  0.75000000  1
  Br  Br1  1  0.25000000  0.25000000  0.25000000  1
  Ag  Ag2  1  0.99509829  0.99509829  0.99509829  1
  Ag  Ag3  1  0.50490171  0.50490171  0.50490171  1
