# generated using pymatgen
data_ZnInPb
_symmetry_space_group_name_H-M   'P 1'
_cell_length_a   5.06725143
_cell_length_b   5.06725144
_cell_length_c   3.45286300
_cell_angle_alpha   90.00000000
_cell_angle_beta   90.00000000
_cell_angle_gamma   120.00000002
_symmetry_Int_Tables_number   1
_chemical_formula_structural   ZnInPb
_chemical_formula_sum   'Zn1 In1 Pb1'
_cell_volume   76.78119853
_cell_formula_units_Z   1
loop_
 _symmetry_equiv_pos_site_id
 _symmetry_equiv_pos_as_xyz
  1  'x, y, z'
loop_
 _atom_site_type_symbol
 _atom_site_label
 _atom_site_symmetry_multiplicity
 _atom_site_fract_x
 _atom_site_fract_y
 _atom_site_fract_z
 _atom_site_occupancy
  In  In0  1  0.00000000  0.00000000  0.83530709  1
  Pb  Pb1  1  0.66666667  0.33333333  0.33412979  1
  Zn  Zn2  1  0.33333333  0.66666667  0.83056312  1
