# generated using pymatgen
data_Ce3In3Pd2
_symmetry_space_group_name_H-M   'P 1'
_cell_length_a   3.78075583
_cell_length_b   7.80714981
_cell_length_c   7.80714980
_cell_angle_alpha   119.99999999
_cell_angle_beta   90.00000000
_cell_angle_gamma   90.00000000
_symmetry_Int_Tables_number   1
_chemical_formula_structural   Ce3In3Pd2
_chemical_formula_sum   'Ce3 In3 Pd2'
_cell_volume   199.56955451
_cell_formula_units_Z   1
loop_
 _symmetry_equiv_pos_site_id
 _symmetry_equiv_pos_as_xyz
  1  'x, y, z'
loop_
 _atom_site_type_symbol
 _atom_site_label
 _atom_site_symmetry_multiplicity
 _atom_site_fract_x
 _atom_site_fract_y
 _atom_site_fract_z
 _atom_site_occupancy
  Pd  Pd0  1  0.00000000  0.66666667  0.33333333  1
  Pd  Pd1  1  0.00000000  0.33333333  0.66666667  1
  Ce  Ce2  1  0.50000000  0.58555596  0.58555596  1
  Ce  Ce3  1  0.50000000  0.41444404  0.00000000  1
  Ce  Ce4  1  0.50000000  0.00000000  0.41444404  1
  In  In5  1  0.00000000  0.23336997  0.23336997  1
  In  In6  1  0.00000000  0.76663003  1.00000000  1
  In  In7  1  0.00000000  1.00000000  0.76663003  1
