# generated using pymatgen
data_Ta2Tl2CuS6
_symmetry_space_group_name_H-M   'P 1'
_cell_length_a   6.31633800
_cell_length_b   6.31633799
_cell_length_c   7.99622472
_cell_angle_alpha   97.59290131
_cell_angle_beta   97.59290138
_cell_angle_gamma   122.89879980
_symmetry_Int_Tables_number   1
_chemical_formula_structural   Ta2Tl2CuS6
_chemical_formula_sum   'Ta2 Tl2 Cu1 S6'
_cell_volume   257.41755415
_cell_formula_units_Z   1
loop_
 _symmetry_equiv_pos_site_id
 _symmetry_equiv_pos_as_xyz
  1  'x, y, z'
loop_
 _atom_site_type_symbol
 _atom_site_label
 _atom_site_symmetry_multiplicity
 _atom_site_fract_x
 _atom_site_fract_y
 _atom_site_fract_z
 _atom_site_occupancy
  Ta  Ta0  1  0.32266746  0.67733254  0.50000000  1
  Ta  Ta1  1  0.67733254  0.32266746  0.50000000  1
  Tl  Tl2  1  0.84808460  0.15191540  0.00000000  1
  Tl  Tl3  1  0.15191540  0.84808460  0.00000000  1
  Cu  Cu4  1  0.00000000  0.00000000  0.50000000  1
  S  S5  1  0.73080540  0.73080540  0.66047184  1
  S  S6  1  0.06563325  0.42022837  0.69391210  1
  S  S7  1  0.26919460  0.26919460  0.33952816  1
  S  S8  1  0.42022837  0.06563325  0.69391210  1
  S  S9  1  0.93436675  0.57977163  0.30608790  1
  S  S10  1  0.57977163  0.93436675  0.30608790  1
