# generated using pymatgen
data_TcPC2
_symmetry_space_group_name_H-M   'P 1'
_cell_length_a   2.98457911
_cell_length_b   2.67717300
_cell_length_c   5.40949553
_cell_angle_alpha   90.00000000
_cell_angle_beta   90.00000000
_cell_angle_gamma   90.00000000
_symmetry_Int_Tables_number   1
_chemical_formula_structural   TcPC2
_chemical_formula_sum   'Tc1 P1 C2'
_cell_volume   43.22313840
_cell_formula_units_Z   1
loop_
 _symmetry_equiv_pos_site_id
 _symmetry_equiv_pos_as_xyz
  1  'x, y, z'
loop_
 _atom_site_type_symbol
 _atom_site_label
 _atom_site_symmetry_multiplicity
 _atom_site_fract_x
 _atom_site_fract_y
 _atom_site_fract_z
 _atom_site_occupancy
  P  P0  1  0.50000000  0.00000000  0.85521430  1
  C  C1  1  0.50000000  0.50000000  0.30897295  1
  C  C2  1  0.50000000  0.00000000  0.18894444  1
  Tc  Tc3  1  0.00000000  0.50000000  0.61853831  1
