# generated using pymatgen
data_Pr(Zn2Pt)6
_symmetry_space_group_name_H-M   'P 1'
_cell_length_a   7.18648042
_cell_length_b   7.18648042
_cell_length_c   7.18648042
_cell_angle_alpha   104.74120355
_cell_angle_beta   104.74120355
_cell_angle_gamma   104.74120357
_symmetry_Int_Tables_number   1
_chemical_formula_structural   Pr(Zn2Pt)6
_chemical_formula_sum   'Pr1 Zn12 Pt6'
_cell_volume   326.27604674
_cell_formula_units_Z   1
loop_
 _symmetry_equiv_pos_site_id
 _symmetry_equiv_pos_as_xyz
  1  'x, y, z'
loop_
 _atom_site_type_symbol
 _atom_site_label
 _atom_site_symmetry_multiplicity
 _atom_site_fract_x
 _atom_site_fract_y
 _atom_site_fract_z
 _atom_site_occupancy
  Pr  Pr0  1  0.00000000  0.00000000  0.00000000  1
  Zn  Zn1  1  0.88932423  0.11067577  0.50000000  1
  Zn  Zn2  1  0.86437672  0.60559639  0.60559639  1
  Zn  Zn3  1  0.60559639  0.60559639  0.86437672  1
  Zn  Zn4  1  0.39440361  0.13562328  0.39440361  1
  Zn  Zn5  1  0.39440361  0.39440361  0.13562328  1
  Zn  Zn6  1  0.13562328  0.39440361  0.39440361  1
  Zn  Zn7  1  0.11067577  0.50000000  0.88932423  1
  Zn  Zn8  1  0.50000000  0.88932423  0.11067577  1
  Zn  Zn9  1  0.11067577  0.88932423  0.50000000  1
  Zn  Zn10  1  0.88932423  0.50000000  0.11067577  1
  Zn  Zn11  1  0.50000000  0.11067577  0.88932423  1
  Zn  Zn12  1  0.60559639  0.86437672  0.60559639  1
  Pt  Pt13  1  0.70549084  0.27735687  0.27735687  1
  Pt  Pt14  1  0.27735687  0.27735687  0.70549084  1
  Pt  Pt15  1  0.27735687  0.70549084  0.27735687  1
  Pt  Pt16  1  0.72264313  0.72264313  0.29450916  1
  Pt  Pt17  1  0.29450916  0.72264313  0.72264313  1
  Pt  Pt18  1  0.72264313  0.29450916  0.72264313  1
