# generated using pymatgen
data_RbFeSe2
_symmetry_space_group_name_H-M   'P 1'
_cell_length_a   9.19915690
_cell_length_b   9.19915690
_cell_length_c   9.19915690
_cell_angle_alpha   23.31046760
_cell_angle_beta   23.31046761
_cell_angle_gamma   23.31046761
_symmetry_Int_Tables_number   1
_chemical_formula_structural   RbFeSe2
_chemical_formula_sum   'Rb1 Fe1 Se2'
_cell_volume   107.02431179
_cell_formula_units_Z   1
loop_
 _symmetry_equiv_pos_site_id
 _symmetry_equiv_pos_as_xyz
  1  'x, y, z'
loop_
 _atom_site_type_symbol
 _atom_site_label
 _atom_site_symmetry_multiplicity
 _atom_site_fract_x
 _atom_site_fract_y
 _atom_site_fract_z
 _atom_site_occupancy
  Se  Se0  1  0.87856870  0.87856870  0.87856870  1
  Se  Se1  1  0.12143130  0.12143130  0.12143130  1
  Rb  Rb2  1  0.00000000  0.00000000  0.00000000  1
  Fe  Fe3  1  0.50000000  0.50000000  0.50000000  1
