# generated using pymatgen
data_LaNd2Ho
_symmetry_space_group_name_H-M   'P 1'
_cell_length_a   3.65936472
_cell_length_b   3.65936472
_cell_length_c   12.14881703
_cell_angle_alpha   81.31695477
_cell_angle_beta   81.31695476
_cell_angle_gamma   59.95359664
_symmetry_Int_Tables_number   1
_chemical_formula_structural   LaNd2Ho
_chemical_formula_sum   'La1 Nd2 Ho1'
_cell_volume   138.66753552
_cell_formula_units_Z   1
loop_
 _symmetry_equiv_pos_site_id
 _symmetry_equiv_pos_as_xyz
  1  'x, y, z'
loop_
 _atom_site_type_symbol
 _atom_site_label
 _atom_site_symmetry_multiplicity
 _atom_site_fract_x
 _atom_site_fract_y
 _atom_site_fract_z
 _atom_site_occupancy
  La  La0  1  0.49923792  0.49923792  0.50050077  1
  Nd  Nd1  1  0.08152242  0.08152242  0.75810551  1
  Nd  Nd2  1  0.25311651  0.25311651  0.24143974  1
  Ho  Ho3  1  0.66612314  0.66612314  0.99995298  1
