# generated using pymatgen
data_HfZrReNi
_symmetry_space_group_name_H-M   'P 1'
_cell_length_a   4.60357592
_cell_length_b   4.60357592
_cell_length_c   4.60357592
_cell_angle_alpha   59.99999998
_cell_angle_beta   60.00000001
_cell_angle_gamma   59.99999997
_symmetry_Int_Tables_number   1
_chemical_formula_structural   HfZrReNi
_chemical_formula_sum   'Hf1 Zr1 Re1 Ni1'
_cell_volume   68.98758322
_cell_formula_units_Z   1
loop_
 _symmetry_equiv_pos_site_id
 _symmetry_equiv_pos_as_xyz
  1  'x, y, z'
loop_
 _atom_site_type_symbol
 _atom_site_label
 _atom_site_symmetry_multiplicity
 _atom_site_fract_x
 _atom_site_fract_y
 _atom_site_fract_z
 _atom_site_occupancy
  Re  Re0  1  0.25000000  0.25000000  0.25000000  1
  Hf  Hf1  1  0.50000000  0.50000000  0.50000000  1
  Zr  Zr2  1  0.00000000  0.00000000  0.00000000  1
  Ni  Ni3  1  0.75000000  0.75000000  0.75000000  1
