# generated using pymatgen
data_NaNp(AuO4)2
_symmetry_space_group_name_H-M   'P 1'
_cell_length_a   6.12710027
_cell_length_b   6.12710027
_cell_length_c   6.12710027
_cell_angle_alpha   110.46770374
_cell_angle_beta   110.46770370
_cell_angle_gamma   107.49612564
_symmetry_Int_Tables_number   1
_chemical_formula_structural   NaNp(AuO4)2
_chemical_formula_sum   'Na1 Np1 Au2 O8'
_cell_volume   176.91208349
_cell_formula_units_Z   1
loop_
 _symmetry_equiv_pos_site_id
 _symmetry_equiv_pos_as_xyz
  1  'x, y, z'
loop_
 _atom_site_type_symbol
 _atom_site_label
 _atom_site_symmetry_multiplicity
 _atom_site_fract_x
 _atom_site_fract_y
 _atom_site_fract_z
 _atom_site_occupancy
  Na  Na0  1  0.25000000  0.75000000  0.50000000  1
  Np  Np1  1  0.00000000  0.00000000  0.00000000  1
  Au  Au2  1  0.75000000  0.25000000  0.50000000  1
  Au  Au3  1  0.50000000  0.50000000  0.00000000  1
  O  O4  1  0.32932509  0.04937506  0.27995003  1
  O  O5  1  0.28272543  0.44882557  0.16610014  1
  O  O6  1  0.28272543  0.11662530  0.83389986  1
  O  O7  1  0.76942502  0.04937506  0.72004997  1
  O  O8  1  0.88337470  0.71727457  0.16610014  1
  O  O9  1  0.95062494  0.23057498  0.27995003  1
  O  O10  1  0.95062494  0.67067491  0.72004997  1
  O  O11  1  0.55117443  0.71727457  0.83389986  1
