# generated using pymatgen
data_KTlCoO4
_symmetry_space_group_name_H-M   'P 1'
_cell_length_a   5.87585846
_cell_length_b   6.08201444
_cell_length_c   7.11871280
_cell_angle_alpha   90.00000000
_cell_angle_beta   107.24158645
_cell_angle_gamma   90.00000000
_symmetry_Int_Tables_number   1
_chemical_formula_structural   KTlCoO4
_chemical_formula_sum   'K2 Tl2 Co2 O8'
_cell_volume   242.96990491
_cell_formula_units_Z   2
loop_
 _symmetry_equiv_pos_site_id
 _symmetry_equiv_pos_as_xyz
  1  'x, y, z'
loop_
 _atom_site_type_symbol
 _atom_site_label
 _atom_site_symmetry_multiplicity
 _atom_site_fract_x
 _atom_site_fract_y
 _atom_site_fract_z
 _atom_site_occupancy
  K  K0  1  0.71467212  0.75000000  0.93348325  1
  K  K1  1  0.28532788  0.25000000  0.06651675  1
  Tl  Tl2  1  0.81563116  0.75000000  0.45901922  1
  Tl  Tl3  1  0.18436884  0.25000000  0.54098078  1
  Co  Co4  1  0.26163073  0.75000000  0.33024920  1
  Co  Co5  1  0.73836927  0.25000000  0.66975080  1
  O  O6  1  0.94940370  0.47771928  0.69345074  1
  O  O7  1  0.05059630  0.97771928  0.30654926  1
  O  O8  1  0.05059630  0.52228072  0.30654926  1
  O  O9  1  0.94940370  0.02228072  0.69345074  1
  O  O10  1  0.46650019  0.75000000  0.19621801  1
  O  O11  1  0.53349981  0.25000000  0.80378199  1
  O  O12  1  0.46956251  0.75000000  0.55552908  1
  O  O13  1  0.53043749  0.25000000  0.44447092  1
