# generated using pymatgen
data_ZrSiMo
_symmetry_space_group_name_H-M   'P 1'
_cell_length_a   3.63649822
_cell_length_b   10.30268073
_cell_length_c   5.54072610
_cell_angle_alpha   90.00000000
_cell_angle_beta   90.00000000
_cell_angle_gamma   90.00000000
_symmetry_Int_Tables_number   1
_chemical_formula_structural   ZrSiMo
_chemical_formula_sum   'Zr4 Si4 Mo4'
_cell_volume   207.58707178
_cell_formula_units_Z   4
loop_
 _symmetry_equiv_pos_site_id
 _symmetry_equiv_pos_as_xyz
  1  'x, y, z'
loop_
 _atom_site_type_symbol
 _atom_site_label
 _atom_site_symmetry_multiplicity
 _atom_site_fract_x
 _atom_site_fract_y
 _atom_site_fract_z
 _atom_site_occupancy
  Mo  Mo0  1  0.00000000  0.50000000  0.00000000  1
  Mo  Mo1  1  0.00000000  0.50000000  0.50000000  1
  Mo  Mo2  1  0.50000000  0.00000000  0.00000000  1
  Mo  Mo3  1  0.50000000  0.00000000  0.50000000  1
  Si  Si4  1  0.00000000  0.88809659  0.25000000  1
  Si  Si5  1  0.00000000  0.11190341  0.75000000  1
  Si  Si6  1  0.50000000  0.38809659  0.25000000  1
  Si  Si7  1  0.50000000  0.61190341  0.75000000  1
  Zr  Zr8  1  0.00000000  0.18983682  0.25000000  1
  Zr  Zr9  1  0.00000000  0.81016318  0.75000000  1
  Zr  Zr10  1  0.50000000  0.68983682  0.25000000  1
  Zr  Zr11  1  0.50000000  0.31016318  0.75000000  1
