# generated using pymatgen
data_BaGdCuBO5
_symmetry_space_group_name_H-M   'P 1'
_cell_length_a   5.50552555
_cell_length_b   5.50552555
_cell_length_c   7.60818191
_cell_angle_alpha   90.00000000
_cell_angle_beta   90.00000000
_cell_angle_gamma   90.00000000
_symmetry_Int_Tables_number   1
_chemical_formula_structural   BaGdCuBO5
_chemical_formula_sum   'Ba2 Gd2 Cu2 B2 O10'
_cell_volume   230.61016835
_cell_formula_units_Z   2
loop_
 _symmetry_equiv_pos_site_id
 _symmetry_equiv_pos_as_xyz
  1  'x, y, z'
loop_
 _atom_site_type_symbol
 _atom_site_label
 _atom_site_symmetry_multiplicity
 _atom_site_fract_x
 _atom_site_fract_y
 _atom_site_fract_z
 _atom_site_occupancy
  Ba  Ba0  1  0.00000000  0.00000000  0.00273522  1
  Ba  Ba1  1  0.50000000  0.50000000  0.00273522  1
  Gd  Gd2  1  0.00000000  0.00000000  0.51145464  1
  Gd  Gd3  1  0.50000000  0.50000000  0.51145464  1
  Cu  Cu4  1  0.50000000  0.00000000  0.72580108  1
  Cu  Cu5  1  0.00000000  0.50000000  0.72580108  1
  B  B6  1  0.50000000  0.00000000  0.25681605  1
  B  B7  1  0.00000000  0.50000000  0.25681605  1
  O  O8  1  0.15679991  0.65679991  0.34487324  1
  O  O9  1  0.84320009  0.34320009  0.34487324  1
  O  O10  1  0.34320009  0.15679991  0.34487324  1
  O  O11  1  0.65679991  0.84320009  0.34487324  1
  O  O12  1  0.50000000  0.00000000  0.07336787  1
  O  O13  1  0.00000000  0.50000000  0.07336787  1
  O  O14  1  0.25241738  0.75241738  0.71153933  1
  O  O15  1  0.74758262  0.24758262  0.71153933  1
  O  O16  1  0.24758262  0.25241738  0.71153933  1
  O  O17  1  0.75241738  0.74758262  0.71153933  1
