# generated using pymatgen
data_Rb3InGe2Br9
_symmetry_space_group_name_H-M   'P 1'
_cell_length_a   7.93600368
_cell_length_b   7.93600368
_cell_length_c   9.74561427
_cell_angle_alpha   90.00000000
_cell_angle_beta   90.00000000
_cell_angle_gamma   120.00000001
_symmetry_Int_Tables_number   1
_chemical_formula_structural   Rb3InGe2Br9
_chemical_formula_sum   'Rb3 In1 Ge2 Br9'
_cell_volume   531.54932470
_cell_formula_units_Z   1
loop_
 _symmetry_equiv_pos_site_id
 _symmetry_equiv_pos_as_xyz
  1  'x, y, z'
loop_
 _atom_site_type_symbol
 _atom_site_label
 _atom_site_symmetry_multiplicity
 _atom_site_fract_x
 _atom_site_fract_y
 _atom_site_fract_z
 _atom_site_occupancy
  Rb  Rb0  1  0.33333333  0.66666667  0.67870808  1
  Rb  Rb1  1  0.00000000  0.00000000  0.00000000  1
  Rb  Rb2  1  0.66666667  0.33333333  0.32129192  1
  In  In3  1  0.00000000  0.00000000  0.50000000  1
  Ge  Ge4  1  0.33333333  0.66666667  0.16512291  1
  Ge  Ge5  1  0.66666667  0.33333333  0.83487709  1
  Br  Br6  1  0.83074026  0.16925974  0.67304026  1
  Br  Br7  1  0.83074026  0.66148053  0.67304026  1
  Br  Br8  1  0.33851947  0.16925974  0.67304026  1
  Br  Br9  1  0.66148053  0.83074026  0.32695974  1
  Br  Br10  1  0.16925974  0.33851947  0.32695974  1
  Br  Br11  1  0.16925974  0.83074026  0.32695974  1
  Br  Br12  1  0.50000000  0.00000000  0.00000000  1
  Br  Br13  1  0.00000000  0.50000000  0.00000000  1
  Br  Br14  1  0.50000000  0.50000000  0.00000000  1
