# generated using pymatgen
data_SrHo(PbSe2)2
_symmetry_space_group_name_H-M   'P 1'
_cell_length_a   4.15462815
_cell_length_b   7.57794412
_cell_length_c   7.80639856
_cell_angle_alpha   75.25227383
_cell_angle_beta   89.99973860
_cell_angle_gamma   89.99970410
_symmetry_Int_Tables_number   1
_chemical_formula_structural   SrHo(PbSe2)2
_chemical_formula_sum   'Sr1 Ho1 Pb2 Se4'
_cell_volume   237.67632371
_cell_formula_units_Z   1
loop_
 _symmetry_equiv_pos_site_id
 _symmetry_equiv_pos_as_xyz
  1  'x, y, z'
loop_
 _atom_site_type_symbol
 _atom_site_label
 _atom_site_symmetry_multiplicity
 _atom_site_fract_x
 _atom_site_fract_y
 _atom_site_fract_z
 _atom_site_occupancy
  Sr  Sr0  1  0.49999900  0.50000150  0.99999950  1
  Ho  Ho1  1  0.00000050  0.49999400  0.50000450  1
  Pb  Pb2  1  -0.00000000  0.00000100  0.99999900  1
  Pb  Pb3  1  0.50000000  0.00000100  0.49999900  1
  Se  Se4  1  0.00000300  0.74207242  0.73960898  1
  Se  Se5  1  0.99999600  0.25792908  0.26038952  1
  Se  Se6  1  0.50000200  0.71155975  0.29152646  1
  Se  Se7  1  0.49999700  0.28844125  0.70847254  1
