# generated using pymatgen
data_Sr2Nd(CuSe2)2
_symmetry_space_group_name_H-M   'P 1'
_cell_length_a   4.07319773
_cell_length_b   7.58184503
_cell_length_c   7.90801941
_cell_angle_alpha   110.17632101
_cell_angle_beta   104.92390106
_cell_angle_gamma   90.00000000
_symmetry_Int_Tables_number   1
_chemical_formula_structural   Sr2Nd(CuSe2)2
_chemical_formula_sum   'Sr2 Nd1 Cu2 Se4'
_cell_volume   220.43482971
_cell_formula_units_Z   1
loop_
 _symmetry_equiv_pos_site_id
 _symmetry_equiv_pos_as_xyz
  1  'x, y, z'
loop_
 _atom_site_type_symbol
 _atom_site_label
 _atom_site_symmetry_multiplicity
 _atom_site_fract_x
 _atom_site_fract_y
 _atom_site_fract_z
 _atom_site_occupancy
  Sr  Sr0  1  0.13368501  0.57445717  0.26737001  1
  Sr  Sr1  1  0.86631499  0.42554283  0.73262999  1
  Nd  Nd2  1  0.00000000  0.00000000  0.00000000  1
  Cu  Cu3  1  0.68767598  0.99889289  0.37535197  1
  Cu  Cu4  1  0.31232402  0.00110711  0.62464803  1
  Se  Se5  1  0.20741248  0.21326830  0.41482597  1
  Se  Se6  1  0.79258752  0.78673170  0.58517403  1
  Se  Se7  1  0.52889928  0.74124722  0.05779856  1
  Se  Se8  1  0.47110072  0.25875278  0.94220144  1
