# generated using pymatgen
data_Y4Cr3
_symmetry_space_group_name_H-M   'P 1'
_cell_length_a   5.75108022
_cell_length_b   5.75108022
_cell_length_c   6.17943832
_cell_angle_alpha   90.00000000
_cell_angle_beta   90.00000000
_cell_angle_gamma   120.00000000
_symmetry_Int_Tables_number   1
_chemical_formula_structural   Y4Cr3
_chemical_formula_sum   'Y4 Cr3'
_cell_volume   177.00212665
_cell_formula_units_Z   1
loop_
 _symmetry_equiv_pos_site_id
 _symmetry_equiv_pos_as_xyz
  1  'x, y, z'
loop_
 _atom_site_type_symbol
 _atom_site_label
 _atom_site_symmetry_multiplicity
 _atom_site_fract_x
 _atom_site_fract_y
 _atom_site_fract_z
 _atom_site_occupancy
  Y  Y0  1  0.00000000  0.00000000  0.24557556  1
  Y  Y1  1  0.00000000  0.00000000  0.75442444  1
  Y  Y2  1  0.66666667  0.33333333  0.50000000  1
  Y  Y3  1  0.33333333  0.66666667  0.50000000  1
  Cr  Cr4  1  0.00000000  0.50000000  0.00000000  1
  Cr  Cr5  1  0.50000000  0.50000000  0.00000000  1
  Cr  Cr6  1  0.50000000  0.00000000  0.00000000  1
