# generated using pymatgen
data_SmGa2AgAu4
_symmetry_space_group_name_H-M   'P 1'
_cell_length_a   4.52814283
_cell_length_b   4.52814283
_cell_length_c   9.34338783
_cell_angle_alpha   75.97660664
_cell_angle_beta   75.97660666
_cell_angle_gamma   59.99999993
_symmetry_Int_Tables_number   1
_chemical_formula_structural   SmGa2AgAu4
_chemical_formula_sum   'Sm1 Ga2 Ag1 Au4'
_cell_volume   159.28402617
_cell_formula_units_Z   1
loop_
 _symmetry_equiv_pos_site_id
 _symmetry_equiv_pos_as_xyz
  1  'x, y, z'
loop_
 _atom_site_type_symbol
 _atom_site_label
 _atom_site_symmetry_multiplicity
 _atom_site_fract_x
 _atom_site_fract_y
 _atom_site_fract_z
 _atom_site_occupancy
  Sm  Sm0  1  0.00000000  0.00000000  0.00000000  1
  Ga  Ga1  1  0.75506834  0.75506834  0.73479497  1
  Ga  Ga2  1  0.24493166  0.24493166  0.26520503  1
  Ag  Ag3  1  0.50000000  0.50000000  0.50000000  1
  Au  Au4  1  0.39289113  0.39289113  0.82132662  1
  Au  Au5  1  0.87572879  0.87572879  0.37281363  1
  Au  Au6  1  0.12427121  0.12427121  0.62718637  1
  Au  Au7  1  0.60710887  0.60710887  0.17867338  1
