# generated using pymatgen
data_ZnIr5
_symmetry_space_group_name_H-M   'P 1'
_cell_length_a   7.24210967
_cell_length_b   7.24210967
_cell_length_c   4.41396773
_cell_angle_alpha   90.00000000
_cell_angle_beta   90.00000000
_cell_angle_gamma   157.88771374
_symmetry_Int_Tables_number   1
_chemical_formula_structural   ZnIr5
_chemical_formula_sum   'Zn1 Ir5'
_cell_volume   87.14358542
_cell_formula_units_Z   1
loop_
 _symmetry_equiv_pos_site_id
 _symmetry_equiv_pos_as_xyz
  1  'x, y, z'
loop_
 _atom_site_type_symbol
 _atom_site_label
 _atom_site_symmetry_multiplicity
 _atom_site_fract_x
 _atom_site_fract_y
 _atom_site_fract_z
 _atom_site_occupancy
  Zn  Zn0  1  0.88860313  0.11139687  0.50000000  1
  Ir  Ir1  1  0.99773041  0.00226959  0.00000000  1
  Ir  Ir2  1  0.66933426  0.33066574  0.00000000  1
  Ir  Ir3  1  0.33393229  0.66606771  0.00000000  1
  Ir  Ir4  1  0.55530288  0.44469712  0.50000000  1
  Ir  Ir5  1  0.22176374  0.77823626  0.50000000  1
