# generated using pymatgen
data_MgZn4(Co3O8)2
_symmetry_space_group_name_H-M   'P 1'
_cell_length_a   5.75779654
_cell_length_b   5.74781044
_cell_length_c   10.01136733
_cell_angle_alpha   83.15481589
_cell_angle_beta   80.07957075
_cell_angle_gamma   119.06451745
_symmetry_Int_Tables_number   1
_chemical_formula_structural   MgZn4(Co3O8)2
_chemical_formula_sum   'Mg1 Zn4 Co6 O16'
_cell_volume   277.23828939
_cell_formula_units_Z   1
loop_
 _symmetry_equiv_pos_site_id
 _symmetry_equiv_pos_as_xyz
  1  'x, y, z'
loop_
 _atom_site_type_symbol
 _atom_site_label
 _atom_site_symmetry_multiplicity
 _atom_site_fract_x
 _atom_site_fract_y
 _atom_site_fract_z
 _atom_site_occupancy
  Mg  Mg0  1  0.90815699  0.56705162  0.01307262  1
  Zn  Zn1  1  0.44944177  0.17478359  0.87440062  1
  Zn  Zn2  1  0.34346668  0.66773932  0.48557322  1
  Zn  Zn3  1  0.62061976  0.28248714  0.57558211  1
  Zn  Zn4  1  0.55315405  0.85202479  0.08607178  1
  Co  Co5  1  0.02830389  0.71389487  0.74768521  1
  Co  Co6  1  0.44725847  0.26496313  0.27128951  1
  Co  Co7  1  0.01723943  0.20249741  0.75989675  1
  Co  Co8  1  0.95987947  0.77762075  0.27118684  1
  Co  Co9  1  0.95932818  0.26817500  0.26847391  1
  Co  Co10  1  0.52587134  0.71154078  0.76097497  1
  O  O11  1  0.08928137  0.95930007  0.87063581  1
  O  O12  1  0.22939829  0.90219354  0.36445643  1
  O  O13  1  0.22408282  0.36935877  0.36561033  1
  O  O14  1  0.66646168  0.53626442  0.87420136  1
  O  O15  1  0.64107676  0.97894811  0.87503612  1
  O  O16  1  0.76350090  0.90769341  0.36580644  1
  O  O17  1  0.14554842  0.64057351  0.15454591  1
  O  O18  1  0.39918247  0.43311139  0.65292635  1
  O  O19  1  0.40243295  0.88938889  0.64006800  1
  O  O20  1  0.69781334  0.19213495  0.15592477  1
  O  O21  1  0.90477466  0.92921573  0.66034030  1
  O  O22  1  0.17857849  0.14961432  0.16683953  1
  O  O23  1  0.13373304  0.49611752  0.85859675  1
  O  O24  1  0.69163274  0.63790867  0.16555910  1
  O  O25  1  0.95046319  0.43824399  0.64320927  1
  O  O26  1  0.73599286  0.39049428  0.37074899  1
