# generated using pymatgen
data_Mn2CoP
_symmetry_space_group_name_H-M   'P 1'
_cell_length_a   7.69854584
_cell_length_b   7.69854584
_cell_length_c   7.69854584
_cell_angle_alpha   19.24259664
_cell_angle_beta   19.24259667
_cell_angle_gamma   19.24259671
_symmetry_Int_Tables_number   1
_chemical_formula_structural   Mn2CoP
_chemical_formula_sum   'Mn2 Co1 P1'
_cell_volume   43.32221177
_cell_formula_units_Z   1
loop_
 _symmetry_equiv_pos_site_id
 _symmetry_equiv_pos_as_xyz
  1  'x, y, z'
loop_
 _atom_site_type_symbol
 _atom_site_label
 _atom_site_symmetry_multiplicity
 _atom_site_fract_x
 _atom_site_fract_y
 _atom_site_fract_z
 _atom_site_occupancy
  Co  Co0  1  0.75000000  0.75000000  0.75000000  1
  Mn  Mn1  1  0.99593719  0.99593719  0.99593719  1
  Mn  Mn2  1  0.50406281  0.50406281  0.50406281  1
  P  P3  1  0.25000000  0.25000000  0.25000000  1
