# generated using pymatgen
data_Ba6MgNb2Ir(ClO6)2
_symmetry_space_group_name_H-M   'P 1'
_cell_length_a   6.00661978
_cell_length_b   6.01908447
_cell_length_c   16.08636839
_cell_angle_alpha   82.53158903
_cell_angle_beta   97.46481099
_cell_angle_gamma   120.05597229
_symmetry_Int_Tables_number   1
_chemical_formula_structural   Ba6MgNb2Ir(ClO6)2
_chemical_formula_sum   'Ba6 Mg1 Nb2 Ir1 Cl2 O12'
_cell_volume   497.69326740
_cell_formula_units_Z   1
loop_
 _symmetry_equiv_pos_site_id
 _symmetry_equiv_pos_as_xyz
  1  'x, y, z'
loop_
 _atom_site_type_symbol
 _atom_site_label
 _atom_site_symmetry_multiplicity
 _atom_site_fract_x
 _atom_site_fract_y
 _atom_site_fract_z
 _atom_site_occupancy
  Ba  Ba0  1  0.28303900  0.71846200  0.37533500  1
  Ba  Ba1  1  0.38417000  0.62071600  0.77220700  1
  Ba  Ba2  1  0.68248800  0.31796800  0.64085700  1
  Ba  Ba3  1  0.72618900  0.27181500  0.89655800  1
  Ba  Ba4  1  0.40092600  0.59866000  0.01499100  1
  Ba  Ba5  1  0.58596800  0.41443600  0.23652000  1
  Mg  Mg6  1  0.19275600  0.80793300  0.17544700  1
  Nb  Nb7  1  0.05550500  0.94653000  0.81388000  1
  Nb  Nb8  1  0.90544700  0.09476700  0.17581700  1
  Ir  Ir9  1  0.03768200  0.96132300  0.01222400  1
  Cl  Cl10  1  0.66518900  0.33531700  0.43141500  1
  Cl  Cl11  1  0.32717200  0.67479500  0.57399500  1
  O  O12  1  0.22308700  0.21590000  0.91312900  1
  O  O13  1  0.34808700  0.16058200  0.74902300  1
  O  O14  1  0.08984000  0.42837000  0.22717700  1
  O  O15  1  0.85026200  0.64930600  0.75030000  1
  O  O16  1  0.85764200  0.12554000  0.76445600  1
  O  O17  1  0.83537500  0.74761700  0.11622800  1
  O  O18  1  0.08318500  0.91696300  0.27086300  1
  O  O19  1  0.25150400  0.16474100  0.11617200  1
  O  O20  1  0.79290000  0.20485200  0.07479500  1
  O  O21  1  0.78659000  0.77018900  0.91388700  1
  O  O22  1  0.57153700  0.90984100  0.22749700  1
  O  O23  1  0.24054600  0.77671100  0.88223000  1
