# generated using pymatgen
data_DyZnSn
_symmetry_space_group_name_H-M   'P 1'
_cell_length_a   4.45166957
_cell_length_b   4.45166957
_cell_length_c   16.04068356
_cell_angle_alpha   90.00000000
_cell_angle_beta   90.00000000
_cell_angle_gamma   120.00001168
_symmetry_Int_Tables_number   1
_chemical_formula_structural   DyZnSn
_chemical_formula_sum   'Dy4 Zn4 Sn4'
_cell_volume   275.29561442
_cell_formula_units_Z   4
loop_
 _symmetry_equiv_pos_site_id
 _symmetry_equiv_pos_as_xyz
  1  'x, y, z'
loop_
 _atom_site_type_symbol
 _atom_site_label
 _atom_site_symmetry_multiplicity
 _atom_site_fract_x
 _atom_site_fract_y
 _atom_site_fract_z
 _atom_site_occupancy
  Dy  Dy0  1  0.00000000  -0.00000000  0.25000000  1
  Dy  Dy1  1  -0.00000000  -0.00000000  0.75000000  1
  Dy  Dy2  1  0.00000000  -0.00000000  -0.00000000  1
  Dy  Dy3  1  0.00000000  -0.00000000  0.50000000  1
  Zn  Zn4  1  0.33333300  0.66666700  0.16180336  1
  Zn  Zn5  1  0.66666700  0.33333300  0.83819664  1
  Zn  Zn6  1  0.66666700  0.33333300  0.66180336  1
  Zn  Zn7  1  0.33333300  0.66666700  0.33819664  1
  Sn  Sn8  1  0.33333300  0.66666700  0.61415845  1
  Sn  Sn9  1  0.66666700  0.33333300  0.38584155  1
  Sn  Sn10  1  0.66666700  0.33333300  0.11415845  1
  Sn  Sn11  1  0.33333300  0.66666700  0.88584155  1
