# generated using pymatgen
data_MgMn6O7F5
_symmetry_space_group_name_H-M   'P 1'
_cell_length_a   8.46543372
_cell_length_b   5.84733509
_cell_length_c   6.01107458
_cell_angle_alpha   65.66157501
_cell_angle_beta   63.14643371
_cell_angle_gamma   64.79786404
_symmetry_Int_Tables_number   1
_chemical_formula_structural   MgMn6O7F5
_chemical_formula_sum   'Mg1 Mn6 O7 F5'
_cell_volume   231.12010449
_cell_formula_units_Z   1
loop_
 _symmetry_equiv_pos_site_id
 _symmetry_equiv_pos_as_xyz
  1  'x, y, z'
loop_
 _atom_site_type_symbol
 _atom_site_label
 _atom_site_symmetry_multiplicity
 _atom_site_fract_x
 _atom_site_fract_y
 _atom_site_fract_z
 _atom_site_occupancy
  Mg  Mg0  1  0.83756300  0.66061100  0.16476600  1
  Mn  Mn1  1  0.82951800  0.66611200  0.66166900  1
  Mn  Mn2  1  0.63360700  0.30449000  0.33677000  1
  Mn  Mn3  1  0.33570400  0.65330600  0.65533100  1
  Mn  Mn4  1  0.20168100  0.34966700  0.34397400  1
  Mn  Mn5  1  0.47936700  0.99107100  0.99561600  1
  Mn  Mn6  1  0.02956100  0.02861800  0.99251900  1
  O  O7  1  0.65424100  0.02383700  0.64260300  1
  O  O8  1  0.33665900  0.35693900  0.96985500  1
  O  O9  1  0.37551600  0.44038900  0.45093300  1
  O  O10  1  0.33164900  0.96898000  0.36065900  1
  O  O11  1  0.66537000  0.62980400  0.03527800  1
  O  O12  1  0.01567900  0.32684000  0.68749400  1
  O  O13  1  0.00355500  0.69762100  0.29997800  1
  F  F14  1  0.31320900  0.86885100  0.86894400  1
  F  F15  1  0.65245000  0.58066500  0.52154600  1
  F  F16  1  0.91857300  0.26621900  0.23682200  1
  F  F17  1  0.72869900  0.05516600  0.10447900  1
  F  F18  1  0.02406500  0.76176400  0.81361700  1
