# generated using pymatgen
data_Ga2Pt
_symmetry_space_group_name_H-M   'P 1'
_cell_length_a   8.47550248
_cell_length_b   8.47550916
_cell_length_c   12.36937160
_cell_angle_alpha   110.01248788
_cell_angle_beta   110.01247265
_cell_angle_gamma   89.93989383
_symmetry_Int_Tables_number   1
_chemical_formula_structural   Ga2Pt
_chemical_formula_sum   'Ga32 Pt16'
_cell_volume   777.67084407
_cell_formula_units_Z   16
loop_
 _symmetry_equiv_pos_site_id
 _symmetry_equiv_pos_as_xyz
  1  'x, y, z'
loop_
 _atom_site_type_symbol
 _atom_site_label
 _atom_site_symmetry_multiplicity
 _atom_site_fract_x
 _atom_site_fract_y
 _atom_site_fract_z
 _atom_site_occupancy
  Ga  Ga0  1  0.35362739  0.28983774  0.12429755  1
  Ga  Ga1  1  0.14646215  0.66674817  0.87589073  1
  Ga  Ga2  1  0.58320339  0.51971849  0.12364345  1
  Ga  Ga3  1  0.78991286  0.77132523  0.62431340  1
  Ga  Ga4  1  0.41679661  0.48028151  0.87635655  1
  Ga  Ga5  1  0.85353785  0.33325183  0.12410927  1
  Ga  Ga6  1  0.89627793  0.91689994  0.37634959  1
  Ga  Ga7  1  0.08310006  0.10372207  0.12365041  1
  Ga  Ga8  1  0.03977904  0.60379607  0.12379482  1
  Ga  Ga9  1  0.83340436  0.27128116  0.62423376  1
  Ga  Ga10  1  0.33325183  0.85353785  0.62410927  1
  Ga  Ga11  1  0.46012164  0.98008325  0.87636650  1
  Ga  Ga12  1  0.91689994  0.89627793  0.87634959  1
  Ga  Ga13  1  0.10372207  0.08310006  0.62365041  1
  Ga  Ga14  1  0.27128116  0.83340436  0.12423376  1
  Ga  Ga15  1  0.96022096  0.39620393  0.87620518  1
  Ga  Ga16  1  0.01991675  0.53987836  0.62363350  1
  Ga  Ga17  1  0.66674817  0.14646215  0.37589073  1
  Ga  Ga18  1  0.48028151  0.41679661  0.37635655  1
  Ga  Ga19  1  0.71016126  0.64637261  0.37570145  1
  Ga  Ga20  1  0.53987836  0.01991675  0.12363350  1
  Ga  Ga21  1  0.22867477  0.21008714  0.87568660  1
  Ga  Ga22  1  0.21008714  0.22867477  0.37568660  1
  Ga  Ga23  1  0.16659564  0.72871884  0.37576524  1
  Ga  Ga24  1  0.72871884  0.16659564  0.87576624  1
  Ga  Ga25  1  0.39620393  0.96022096  0.37620518  1
  Ga  Ga26  1  0.51971849  0.58320339  0.62364345  1
  Ga  Ga27  1  0.77132523  0.78991286  0.12431340  1
  Ga  Ga28  1  0.28983774  0.35362739  0.62429855  1
  Ga  Ga29  1  0.64637261  0.71016126  0.87570245  1
  Ga  Ga30  1  0.98008325  0.46012164  0.37636650  1
  Ga  Ga31  1  0.60379607  0.03977904  0.62379482  1
  Pt  Pt32  1  0.51515268  0.26518190  0.53061261  1
  Pt  Pt33  1  0.73481810  0.48484732  0.96938739  1
  Pt  Pt34  1  0.07400100  0.92599900  0.25000000  1
  Pt  Pt35  1  0.67628722  0.32371278  0.25000000  1
  Pt  Pt36  1  0.42577441  0.17602256  0.74990969  1
  Pt  Pt37  1  0.76527117  0.01512069  0.03061801  1
  Pt  Pt38  1  0.26518190  0.51515268  0.03061261  1
  Pt  Pt39  1  0.48484732  0.73481810  0.46938739  1
  Pt  Pt40  1  0.01512069  0.76527117  0.53061801  1
  Pt  Pt41  1  0.92599900  0.07400100  0.75000000  1
  Pt  Pt42  1  0.57422559  0.82397744  0.25009031  1
  Pt  Pt43  1  0.23472883  0.98487931  0.96938199  1
  Pt  Pt44  1  0.82397744  0.57422559  0.75009031  1
  Pt  Pt45  1  0.32371278  0.67628722  0.75000000  1
  Pt  Pt46  1  0.98487931  0.23472883  0.46938199  1
  Pt  Pt47  1  0.17602256  0.42577441  0.24990969  1
