# generated using pymatgen
data_Ba2Tl2Sn3O10
_symmetry_space_group_name_H-M   'P 1'
_cell_length_a   3.88206753
_cell_length_b   3.91946177
_cell_length_c   18.88461996
_cell_angle_alpha   89.55972144
_cell_angle_beta   89.97256707
_cell_angle_gamma   90.00006327
_symmetry_Int_Tables_number   1
_chemical_formula_structural   Ba2Tl2Sn3O10
_chemical_formula_sum   'Ba2 Tl2 Sn3 O10'
_cell_volume   287.33259575
_cell_formula_units_Z   1
loop_
 _symmetry_equiv_pos_site_id
 _symmetry_equiv_pos_as_xyz
  1  'x, y, z'
loop_
 _atom_site_type_symbol
 _atom_site_label
 _atom_site_symmetry_multiplicity
 _atom_site_fract_x
 _atom_site_fract_y
 _atom_site_fract_z
 _atom_site_occupancy
  Ba  Ba0  1  0.20640364  0.22500765  0.70607924  1
  Ba  Ba1  1  0.70735062  0.74736009  0.29472829  1
  Tl  Tl2  1  0.70610711  0.69607574  0.56082779  1
  Tl  Tl3  1  0.20688863  0.20266325  0.44013953  1
  Sn  Sn4  1  0.20778798  0.25138110  0.16234213  1
  Sn  Sn5  1  0.70630962  0.71993654  0.83838508  1
  Sn  Sn6  1  0.70796670  0.22543744  0.99969873  1
  O  O7  1  0.70769221  0.25058389  0.19235732  1
  O  O8  1  0.20724997  0.25283378  0.33094024  1
  O  O9  1  0.20762169  0.75018782  0.19250461  1
  O  O10  1  0.70676438  0.84730593  0.45252242  1
  O  O11  1  0.70672659  0.71708141  0.94571809  1
  O  O12  1  0.70627008  0.22085924  0.81036884  1
  O  O13  1  0.70646540  0.73251351  0.67017484  1
  O  O14  1  0.20639045  0.72058485  0.80655603  1
  O  O15  1  0.20640298  0.34191686  0.54860551  1
  O  O16  1  0.20830696  0.24873789  0.05499430  1
