# generated using pymatgen
data_La3MgTi4O12
_symmetry_space_group_name_H-M   'P 1'
_cell_length_a   5.49894117
_cell_length_b   5.49916989
_cell_length_c   9.22683570
_cell_angle_alpha   89.89341388
_cell_angle_beta   89.90688228
_cell_angle_gamma   89.82635197
_symmetry_Int_Tables_number   1
_chemical_formula_structural   La3MgTi4O12
_chemical_formula_sum   'La3 Mg1 Ti4 O12'
_cell_volume   279.01379914
_cell_formula_units_Z   1
loop_
 _symmetry_equiv_pos_site_id
 _symmetry_equiv_pos_as_xyz
  1  'x, y, z'
loop_
 _atom_site_type_symbol
 _atom_site_label
 _atom_site_symmetry_multiplicity
 _atom_site_fract_x
 _atom_site_fract_y
 _atom_site_fract_z
 _atom_site_occupancy
  La  La0  1  0.27495700  0.27503200  0.07718700  1
  La  La1  1  0.24663900  0.24659200  0.44191300  1
  La  La2  1  0.73522700  0.73511500  0.94739600  1
  Mg  Mg3  1  0.23923900  0.23911400  0.76624300  1
  Ti  Ti4  1  0.25804900  0.75541300  0.25778400  1
  Ti  Ti5  1  0.23425800  0.75064700  0.68954800  1
  Ti  Ti6  1  0.75538700  0.25810800  0.25787900  1
  Ti  Ti7  1  0.75070800  0.23418000  0.68956600  1
  O  O8  1  0.01192300  0.01199100  0.22537900  1
  O  O9  1  0.99176800  0.99166400  0.79006900  1
  O  O10  1  0.02417000  0.48801600  0.25714700  1
  O  O11  1  0.98784200  0.49575400  0.76759400  1
  O  O12  1  0.22225600  0.78414200  0.49238900  1
  O  O13  1  0.31289700  0.70733000  0.03861900  1
  O  O14  1  0.48800300  0.02419400  0.25709900  1
  O  O15  1  0.49583400  0.98771800  0.76751500  1
  O  O16  1  0.49435100  0.49437900  0.28853200  1
  O  O17  1  0.47851400  0.47849000  0.70718200  1
  O  O18  1  0.70721200  0.31315600  0.03861400  1
  O  O19  1  0.78406100  0.22226100  0.49234400  1
