# generated using pymatgen
data_Tb17Mg11Ni8
_symmetry_space_group_name_H-M   'P 1'
_cell_length_a   3.59617674
_cell_length_b   10.90886728
_cell_length_c   21.85320761
_cell_angle_alpha   90.00000000
_cell_angle_beta   90.00000000
_cell_angle_gamma   90.00000000
_symmetry_Int_Tables_number   1
_chemical_formula_structural   Tb17Mg11Ni8
_chemical_formula_sum   'Tb17 Mg11 Ni8'
_cell_volume   857.30602800
_cell_formula_units_Z   1
loop_
 _symmetry_equiv_pos_site_id
 _symmetry_equiv_pos_as_xyz
  1  'x, y, z'
loop_
 _atom_site_type_symbol
 _atom_site_label
 _atom_site_symmetry_multiplicity
 _atom_site_fract_x
 _atom_site_fract_y
 _atom_site_fract_z
 _atom_site_occupancy
  Tb  Tb0  1  0.50000000  0.31770904  0.16211611  1
  Tb  Tb1  1  0.50000000  0.32655218  0.66023149  1
  Tb  Tb2  1  0.50000000  0.67344782  0.33976851  1
  Tb  Tb3  1  0.50000000  0.68229096  0.83788389  1
  Tb  Tb4  1  0.50000000  0.68229096  0.16211611  1
  Tb  Tb5  1  0.50000000  0.67344782  0.66023149  1
  Tb  Tb6  1  0.50000000  0.32655218  0.33976851  1
  Tb  Tb7  1  0.50000000  0.31770904  0.83788389  1
  Tb  Tb8  1  0.50000000  -0.00000000  0.13870591  1
  Tb  Tb9  1  0.50000000  -0.00000000  0.62803390  1
  Tb  Tb10  1  0.50000000  -0.00000000  0.37196610  1
  Tb  Tb11  1  0.50000000  -0.00000000  0.86129409  1
  Tb  Tb12  1  0.50000000  0.72359510  -0.00000000  1
  Tb  Tb13  1  0.50000000  0.74200158  0.50000000  1
  Tb  Tb14  1  0.50000000  0.27640490  -0.00000000  1
  Tb  Tb15  1  0.50000000  0.25799842  0.50000000  1
  Tb  Tb16  1  -0.00000000  -0.00000000  -0.00000000  1
  Mg  Mg17  1  -0.00000000  0.50000000  0.07288393  1
  Mg  Mg18  1  -0.00000000  0.50000000  0.56824822  1
  Mg  Mg19  1  -0.00000000  0.50000000  0.43175178  1
  Mg  Mg20  1  0.00000000  0.50000000  0.92711607  1
  Mg  Mg21  1  0.00000000  0.85935175  0.25539850  1
  Mg  Mg22  1  0.00000000  0.85935175  0.74460150  1
  Mg  Mg23  1  -0.00000000  0.14064825  0.25539850  1
  Mg  Mg24  1  -0.00000000  0.14064825  0.74460150  1
  Mg  Mg25  1  -0.00000000  0.50000000  0.24928230  1
  Mg  Mg26  1  -0.00000000  0.50000000  0.75071770  1
  Mg  Mg27  1  -0.00000000  -0.00000000  0.50000000  1
  Ni  Ni28  1  0.00000000  0.18876497  0.09415935  1
  Ni  Ni29  1  -0.00000000  0.19179224  0.59604784  1
  Ni  Ni30  1  0.00000000  0.80820776  0.40395216  1
  Ni  Ni31  1  -0.00000000  0.81123503  0.90584065  1
  Ni  Ni32  1  -0.00000000  0.81123503  0.09415935  1
  Ni  Ni33  1  0.00000000  0.80820776  0.59604784  1
  Ni  Ni34  1  -0.00000000  0.19179224  0.40395216  1
  Ni  Ni35  1  0.00000000  0.18876497  0.90584065  1
