# generated using pymatgen
data_ZnAg2P2O9
_symmetry_space_group_name_H-M   'P 1'
_cell_length_a   6.21936116
_cell_length_b   6.40665711
_cell_length_c   17.00812941
_cell_angle_alpha   90.00000000
_cell_angle_beta   90.00000000
_cell_angle_gamma   90.00000000
_symmetry_Int_Tables_number   1
_chemical_formula_structural   ZnAg2P2O9
_chemical_formula_sum   'Zn4 Ag8 P8 O36'
_cell_volume   677.69426362
_cell_formula_units_Z   4
loop_
 _symmetry_equiv_pos_site_id
 _symmetry_equiv_pos_as_xyz
  1  'x, y, z'
loop_
 _atom_site_type_symbol
 _atom_site_label
 _atom_site_symmetry_multiplicity
 _atom_site_fract_x
 _atom_site_fract_y
 _atom_site_fract_z
 _atom_site_occupancy
  Zn  Zn0  1  0.75000000  0.37915635  0.79413952  1
  Zn  Zn1  1  0.75000000  0.12084365  0.29413952  1
  Zn  Zn2  1  0.25000000  0.87915635  0.70586048  1
  Zn  Zn3  1  0.25000000  0.62084365  0.20586048  1
  Ag  Ag4  1  0.75000000  0.87300622  0.87721940  1
  Ag  Ag5  1  0.25000000  0.12699378  0.12278060  1
  Ag  Ag6  1  0.25000000  0.37300622  0.62278060  1
  Ag  Ag7  1  0.75000000  0.62699378  0.37721940  1
  Ag  Ag8  1  0.50000000  0.50000000  0.00000000  1
  Ag  Ag9  1  0.50000000  0.00000000  0.50000000  1
  Ag  Ag10  1  0.00000000  0.00000000  0.50000000  1
  Ag  Ag11  1  0.00000000  0.50000000  0.00000000  1
  P  P12  1  0.25000000  0.90126634  0.92164848  1
  P  P13  1  0.75000000  0.09873366  0.07835152  1
  P  P14  1  0.75000000  0.40126634  0.57835152  1
  P  P15  1  0.25000000  0.59873366  0.42164848  1
  P  P16  1  0.75000000  0.86767893  0.70840163  1
  P  P17  1  0.75000000  0.63232107  0.20840163  1
  P  P18  1  0.25000000  0.36767893  0.79159837  1
  P  P19  1  0.25000000  0.13232107  0.29159837  1
  O  O20  1  0.04536156  0.10849134  0.34036504  1
  O  O21  1  0.54536156  0.89150866  0.65963496  1
  O  O22  1  0.95463844  0.60849134  0.15963496  1
  O  O23  1  0.45463844  0.39150866  0.84036504  1
  O  O24  1  0.95463844  0.89150866  0.65963496  1
  O  O25  1  0.45463844  0.10849134  0.34036504  1
  O  O26  1  0.04536156  0.39150866  0.84036504  1
  O  O27  1  0.54536156  0.60849134  0.15963496  1
  O  O28  1  0.25000000  0.78721610  0.48348040  1
  O  O29  1  0.75000000  0.21278390  0.51651960  1
  O  O30  1  0.75000000  0.28721610  0.01651960  1
  O  O31  1  0.25000000  0.71278390  0.98348040  1
  O  O32  1  0.75000000  0.59689644  0.93357041  1
  O  O33  1  0.25000000  0.40310356  0.06642959  1
  O  O34  1  0.25000000  0.09689644  0.56642959  1
  O  O35  1  0.75000000  0.90310356  0.43357041  1
  O  O36  1  0.75000000  0.66493292  0.75395054  1
  O  O37  1  0.25000000  0.33506708  0.24604946  1
  O  O38  1  0.25000000  0.16493292  0.74604946  1
  O  O39  1  0.75000000  0.83506708  0.25395054  1
  O  O40  1  0.43541586  0.63367660  0.36412019  1
  O  O41  1  0.93541586  0.36632340  0.63587981  1
  O  O42  1  0.56458414  0.13367660  0.13587981  1
  O  O43  1  0.06458414  0.86632340  0.86412019  1
  O  O44  1  0.56458414  0.36632340  0.63587981  1
  O  O45  1  0.06458414  0.63367660  0.36412019  1
  O  O46  1  0.43541586  0.86632340  0.86412019  1
  O  O47  1  0.93541586  0.13367660  0.13587981  1
  O  O48  1  0.75000000  0.90712110  0.02938702  1
  O  O49  1  0.25000000  0.54926630  0.72485369  1
  O  O50  1  0.25000000  0.95073370  0.22485369  1
  O  O51  1  0.75000000  0.04926630  0.77514631  1
  O  O52  1  0.75000000  0.59287890  0.52938702  1
  O  O53  1  0.25000000  0.40712110  0.47061298  1
  O  O54  1  0.25000000  0.09287890  0.97061298  1
  O  O55  1  0.75000000  0.45073370  0.27514631  1
