# generated using pymatgen
data_Ca2Mg(CO3)3
_symmetry_space_group_name_H-M   'P 1'
_cell_length_a   4.81991912
_cell_length_b   6.06576989
_cell_length_c   11.77002445
_cell_angle_alpha   88.80710425
_cell_angle_beta   78.18490131
_cell_angle_gamma   90.00000000
_symmetry_Int_Tables_number   1
_chemical_formula_structural   Ca2Mg(CO3)3
_chemical_formula_sum   'Ca4 Mg2 C6 O18'
_cell_volume   336.74776988
_cell_formula_units_Z   2
loop_
 _symmetry_equiv_pos_site_id
 _symmetry_equiv_pos_as_xyz
  1  'x, y, z'
loop_
 _atom_site_type_symbol
 _atom_site_label
 _atom_site_symmetry_multiplicity
 _atom_site_fract_x
 _atom_site_fract_y
 _atom_site_fract_z
 _atom_site_occupancy
  Ca  Ca0  1  0.83192882  0.16452982  0.32323317  1
  Ca  Ca1  1  0.16807118  0.83547018  0.67676683  1
  Ca  Ca2  1  0.34483801  0.66452982  0.32323317  1
  Ca  Ca3  1  0.65516199  0.33547018  0.67676683  1
  Mg  Mg4  1  0.50000000  0.50000000  -0.00000000  1
  Mg  Mg5  1  -0.00000000  -0.00000000  -0.00000000  1
  C  C6  1  0.76929828  0.75000000  0.50000000  1
  C  C7  1  0.08027968  0.41714394  0.85008993  1
  C  C8  1  0.43036961  0.08285606  0.14991007  1
  C  C9  1  0.91972032  0.58285606  0.14991007  1
  C  C10  1  0.23070172  0.25000000  0.50000000  1
  C  C11  1  0.56963039  0.91714394  0.85008993  1
  O  O12  1  0.26190284  0.00345881  0.24095580  1
  O  O13  1  0.59189595  0.67321018  0.58921432  1
  O  O14  1  0.89782338  0.32139394  0.93171781  1
  O  O15  1  0.70043745  0.06674960  0.14438150  1
  O  O16  1  0.03630730  0.75000000  0.50000000  1
  O  O17  1  0.34481894  0.43325040  0.85561850  1
  O  O18  1  0.99714136  0.50345881  0.24095580  1
  O  O19  1  0.31888973  0.17321018  0.58921432  1
  O  O20  1  0.67045881  0.82139394  0.93171781  1
  O  O21  1  0.40810405  0.32678982  0.41078568  1
  O  O22  1  0.73809716  0.99654119  0.75904420  1
  O  O23  1  0.10217662  0.67860606  0.06828219  1
  O  O24  1  0.96369270  0.25000000  0.50000000  1
  O  O25  1  0.29956255  0.93325040  0.85561850  1
  O  O26  1  0.65518106  0.56674960  0.14438150  1
  O  O27  1  0.68111027  0.82678982  0.41078568  1
  O  O28  1  0.00285864  0.49654119  0.75904420  1
  O  O29  1  0.32954119  0.17860606  0.06828219  1
