# generated using pymatgen
data_Mg6NbCdO8
_symmetry_space_group_name_H-M   'P 1'
_cell_length_a   8.96319331
_cell_length_b   4.42869260
_cell_length_c   4.42869260
_cell_angle_alpha   90.00000000
_cell_angle_beta   90.00000000
_cell_angle_gamma   90.00000000
_symmetry_Int_Tables_number   1
_chemical_formula_structural   Mg6NbCdO8
_chemical_formula_sum   'Mg6 Nb1 Cd1 O8'
_cell_volume   175.79796199
_cell_formula_units_Z   1
loop_
 _symmetry_equiv_pos_site_id
 _symmetry_equiv_pos_as_xyz
  1  'x, y, z'
loop_
 _atom_site_type_symbol
 _atom_site_label
 _atom_site_symmetry_multiplicity
 _atom_site_fract_x
 _atom_site_fract_y
 _atom_site_fract_z
 _atom_site_occupancy
  Mg  Mg0  1  0.00000000  0.50000000  0.50000000  1
  Mg  Mg1  1  0.50000000  0.50000000  0.50000000  1
  Mg  Mg2  1  0.25256945  0.00000000  0.50000000  1
  Mg  Mg3  1  0.74743055  -0.00000000  0.50000000  1
  Mg  Mg4  1  0.25256945  0.50000000  -0.00000000  1
  Mg  Mg5  1  0.74743055  0.50000000  0.00000000  1
  Nb  Nb6  1  0.00000000  0.00000000  -0.00000000  1
  Cd  Cd7  1  0.50000000  0.00000000  -0.00000000  1
  O  O8  1  0.24182270  0.00000000  -0.00000000  1
  O  O9  1  0.75817730  -0.00000000  0.00000000  1
  O  O10  1  0.24812088  0.50000000  0.50000000  1
  O  O11  1  0.75187912  0.50000000  0.50000000  1
  O  O12  1  0.00000000  0.00000000  0.50000000  1
  O  O13  1  0.50000000  0.00000000  0.50000000  1
  O  O14  1  0.00000000  0.50000000  -0.00000000  1
  O  O15  1  0.50000000  0.50000000  -0.00000000  1
