# generated using pymatgen
data_Zn13Sb10
_symmetry_space_group_name_H-M   'P 1'
_cell_length_a   10.87381131
_cell_length_b   12.26031622
_cell_length_c   17.39873726
_cell_angle_alpha   110.16598525
_cell_angle_beta   98.36512533
_cell_angle_gamma   90.14135496
_symmetry_Int_Tables_number   1
_chemical_formula_structural   Zn13Sb10
_chemical_formula_sum   'Zn52 Sb40'
_cell_volume   2150.71866585
_cell_formula_units_Z   4
loop_
 _symmetry_equiv_pos_site_id
 _symmetry_equiv_pos_as_xyz
  1  'x, y, z'
loop_
 _atom_site_type_symbol
 _atom_site_label
 _atom_site_symmetry_multiplicity
 _atom_site_fract_x
 _atom_site_fract_y
 _atom_site_fract_z
 _atom_site_occupancy
  Zn  Zn0  1  0.35954515  0.28192358  0.00434839  1
  Zn  Zn1  1  0.06311060  0.55627666  0.78402974  1
  Zn  Zn2  1  0.59708773  0.03022827  0.73915851  1
  Zn  Zn3  1  0.86976517  0.80671740  0.01056595  1
  Zn  Zn4  1  0.11384644  0.05122181  0.51064613  1
  Zn  Zn5  1  0.13847770  0.13060936  0.33167266  1
  Zn  Zn6  1  0.88615407  0.94877631  0.48935241  1
  Zn  Zn7  1  0.77009502  0.32772933  0.57768641  1
  Zn  Zn8  1  0.45341767  0.10787592  0.53069820  1
  Zn  Zn9  1  0.71041183  0.36828164  0.03753936  1
  Zn  Zn10  1  0.75017661  0.17413229  0.42297335  1
  Zn  Zn11  1  0.73828095  0.57641501  0.75192151  1
  Zn  Zn12  1  0.09339386  0.13661806  0.17568615  1
  Zn  Zn13  1  0.38492591  0.45377577  0.49321713  1
  Zn  Zn14  1  0.22990560  0.67227152  0.42231343  1
  Zn  Zn15  1  0.23385899  0.07993292  0.75541676  1
  Zn  Zn16  1  0.40291132  0.96977210  0.26084178  1
  Zn  Zn17  1  0.13023469  0.19328240  0.98943447  1
  Zn  Zn18  1  0.64045504  0.71807622  0.99565115  1
  Zn  Zn19  1  0.19272548  0.84641451  0.03334665  1
  Zn  Zn20  1  0.94766605  0.60217632  0.53146238  1
  Zn  Zn21  1  0.28958792  0.63171779  0.96246011  1
  Zn  Zn22  1  0.24982234  0.82586834  0.57702717  1
  Zn  Zn23  1  0.90660674  0.86338149  0.82431366  1
  Zn  Zn24  1  0.05233509  0.39782432  0.46853825  1
  Zn  Zn25  1  0.57124852  0.21998667  0.10375152  1
  Zn  Zn26  1  0.99548266  0.41953876  0.92520933  1
  Zn  Zn27  1  0.26171946  0.42358522  0.24807852  1
  Zn  Zn28  1  0.48913254  0.34966473  0.26642534  1
  Zn  Zn29  1  0.00451778  0.58046132  0.07479047  1
  Zn  Zn30  1  0.52372293  0.93817130  0.85264618  1
  Zn  Zn31  1  0.54658132  0.89212424  0.46930202  1
  Zn  Zn32  1  0.47627660  0.06182896  0.14735347  1
  Zn  Zn33  1  0.41068866  0.74174863  0.17715879  1
  Zn  Zn34  1  0.76614217  0.92006680  0.24458329  1
  Zn  Zn35  1  0.75046890  0.19695708  0.70820903  1
  Zn  Zn36  1  0.42875129  0.78001322  0.89624758  1
  Zn  Zn37  1  0.38436378  0.37522335  0.82927554  1
  Zn  Zn38  1  0.17226633  0.68773192  0.71123859  1
  Zn  Zn39  1  0.98965925  0.83563499  0.25892815  1
  Zn  Zn40  1  0.01034214  0.16436464  0.74107375  1
  Zn  Zn41  1  0.82773402  0.31226829  0.28876149  1
  Zn  Zn42  1  0.80727435  0.15358546  0.96665307  1
  Zn  Zn43  1  0.51086732  0.65033523  0.73357469  1
  Zn  Zn44  1  0.61563628  0.62477615  0.17072431  1
  Zn  Zn45  1  0.63339792  0.63910403  0.34088342  1
  Zn  Zn46  1  0.61507420  0.54622426  0.50678311  1
  Zn  Zn47  1  0.86152312  0.86938939  0.66832754  1
  Zn  Zn48  1  0.93688951  0.44372077  0.21596920  1
  Zn  Zn49  1  0.24953019  0.80304331  0.29179134  1
  Zn  Zn50  1  0.58931020  0.25825163  0.82284119  1
  Zn  Zn51  1  0.36660238  0.36089570  0.65911641  1
  Sb  Sb52  1  0.83805824  0.06994835  0.80553524  1
  Sb  Sb53  1  0.97932426  0.34086150  0.68339219  1
  Sb  Sb54  1  0.81160552  0.70997842  0.12576580  1
  Sb  Sb55  1  0.69271696  0.78486141  0.86931921  1
  Sb  Sb56  1  0.94292849  0.04545426  0.37492769  1
  Sb  Sb57  1  0.53321930  0.17530261  0.32565394  1
  Sb  Sb58  1  0.29514699  0.90721721  0.45388653  1
  Sb  Sb59  1  0.39549683  0.51760350  0.05956990  1
  Sb  Sb60  1  0.89350922  0.03702271  0.06477312  1
  Sb  Sb61  1  0.35100027  0.22063916  0.43315773  1
  Sb  Sb62  1  0.18839496  0.29002200  0.87423417  1
  Sb  Sb63  1  0.08313911  0.33621417  0.30646518  1
  Sb  Sb64  1  0.67709603  0.43090929  0.20357491  1
  Sb  Sb65  1  0.60450297  0.48239631  0.94042956  1
  Sb  Sb66  1  0.73526974  0.09956111  0.18674793  1
  Sb  Sb67  1  0.55186421  0.16161534  0.93733214  1
  Sb  Sb68  1  0.02067571  0.65913357  0.31660830  1
  Sb  Sb69  1  0.96075035  0.34840547  0.05465658  1
  Sb  Sb70  1  0.78207583  0.41562453  0.82533338  1
  Sb  Sb71  1  0.43427013  0.55324448  0.37880789  1
  Sb  Sb72  1  0.46678122  0.82469780  0.67434654  1
  Sb  Sb73  1  0.21792388  0.58437585  0.17466601  1
  Sb  Sb74  1  0.26473033  0.90043935  0.81325171  1
  Sb  Sb75  1  0.30728348  0.21513960  0.13068019  1
  Sb  Sb76  1  0.16194138  0.93005155  0.19446516  1
  Sb  Sb77  1  0.64900018  0.77936094  0.56684297  1
  Sb  Sb78  1  0.32290404  0.56908984  0.79642426  1
  Sb  Sb79  1  0.41064802  0.15839319  0.69230257  1
  Sb  Sb80  1  0.79580014  0.40450144  0.44814396  1
  Sb  Sb81  1  0.20420051  0.59549939  0.55185680  1
  Sb  Sb82  1  0.85372848  0.71780218  0.43309840  1
  Sb  Sb83  1  0.56573091  0.44675571  0.62119259  1
  Sb  Sb84  1  0.91686218  0.66378503  0.69353533  1
  Sb  Sb85  1  0.05706611  0.95455468  0.62507436  1
  Sb  Sb86  1  0.44813552  0.83838449  0.06266639  1
  Sb  Sb87  1  0.14627212  0.28219729  0.56690225  1
  Sb  Sb88  1  0.03924964  0.65159364  0.94534216  1
  Sb  Sb89  1  0.10649038  0.96297727  0.93522616  1
  Sb  Sb90  1  0.58935200  0.84160695  0.30769779  1
  Sb  Sb91  1  0.70485254  0.09278208  0.54611398  1
