# generated using pymatgen
data_CaIn2Rh
_symmetry_space_group_name_H-M   'P 1'
_cell_length_a   5.73312720
_cell_length_b   7.83231400
_cell_length_c   15.94599809
_cell_angle_alpha   90.00000000
_cell_angle_beta   90.00000000
_cell_angle_gamma   90.00000000
_symmetry_Int_Tables_number   1
_chemical_formula_structural   CaIn2Rh
_chemical_formula_sum   'Ca8 In16 Rh8'
_cell_volume   716.03355592
_cell_formula_units_Z   8
loop_
 _symmetry_equiv_pos_site_id
 _symmetry_equiv_pos_as_xyz
  1  'x, y, z'
loop_
 _atom_site_type_symbol
 _atom_site_label
 _atom_site_symmetry_multiplicity
 _atom_site_fract_x
 _atom_site_fract_y
 _atom_site_fract_z
 _atom_site_occupancy
  Ca  Ca0  1  0.75260446  0.75000000  0.89661641  1
  Ca  Ca1  1  0.24739554  0.25000000  0.10338359  1
  Ca  Ca2  1  0.25260446  0.25000000  0.60338359  1
  Ca  Ca3  1  0.74739554  0.75000000  0.39661641  1
  Ca  Ca4  1  0.04252498  0.75000000  0.63816298  1
  Ca  Ca5  1  0.95747502  0.25000000  0.36183702  1
  Ca  Ca6  1  0.54252498  0.25000000  0.86183702  1
  Ca  Ca7  1  0.45747502  0.75000000  0.13816298  1
  In  In8  1  0.54213906  0.55096096  0.71247357  1
  In  In9  1  0.45786094  0.44903904  0.28752643  1
  In  In10  1  0.04213906  0.44903904  0.78752643  1
  In  In11  1  0.45786094  0.05096096  0.28752643  1
  In  In12  1  0.95786094  0.55096096  0.21247357  1
  In  In13  1  0.54213906  0.94903904  0.71247357  1
  In  In14  1  0.95786094  0.94903904  0.21247357  1
  In  In15  1  0.04213906  0.05096096  0.78752643  1
  In  In16  1  0.74650970  0.05473731  0.53942142  1
  In  In17  1  0.25349030  0.94526269  0.46057858  1
  In  In18  1  0.24650970  0.94526269  0.96057858  1
  In  In19  1  0.25349030  0.55473731  0.46057858  1
  In  In20  1  0.75349030  0.05473731  0.03942142  1
  In  In21  1  0.74650970  0.44526269  0.53942142  1
  In  In22  1  0.75349030  0.44526269  0.03942142  1
  In  In23  1  0.24650970  0.55473731  0.96057858  1
  Rh  Rh24  1  0.27451762  0.75000000  0.81403685  1
  Rh  Rh25  1  0.72548238  0.25000000  0.18596315  1
  Rh  Rh26  1  0.77451762  0.25000000  0.68596315  1
  Rh  Rh27  1  0.22548238  0.75000000  0.31403685  1
  Rh  Rh28  1  0.51880024  0.75000000  0.57104087  1
  Rh  Rh29  1  0.48119976  0.25000000  0.42895913  1
  Rh  Rh30  1  0.01880024  0.25000000  0.92895913  1
  Rh  Rh31  1  0.98119976  0.75000000  0.07104087  1
