# generated using pymatgen
data_Sb2XeF14
_symmetry_space_group_name_H-M   'P 1'
_cell_length_a   8.22895700
_cell_length_b   8.49516254
_cell_length_c   9.81400859
_cell_angle_alpha   112.60988595
_cell_angle_beta   89.52802007
_cell_angle_gamma   112.15987607
_symmetry_Int_Tables_number   1
_chemical_formula_structural   Sb2XeF14
_chemical_formula_sum   'Sb4 Xe2 F28'
_cell_volume   578.99746822
_cell_formula_units_Z   2
loop_
 _symmetry_equiv_pos_site_id
 _symmetry_equiv_pos_as_xyz
  1  'x, y, z'
loop_
 _atom_site_type_symbol
 _atom_site_label
 _atom_site_symmetry_multiplicity
 _atom_site_fract_x
 _atom_site_fract_y
 _atom_site_fract_z
 _atom_site_occupancy
  Sb  Sb0  1  0.20578400  0.58924800  0.77073600  1
  Sb  Sb1  1  0.79421600  0.41075200  0.22926400  1
  Sb  Sb2  1  0.50897600  0.41793200  0.70843100  1
  Sb  Sb3  1  0.49102400  0.58206800  0.29156900  1
  Xe  Xe4  1  0.19233500  0.03556300  0.25885900  1
  Xe  Xe5  1  0.80766500  0.96443700  0.74114100  1
  F  F6  1  0.12217500  0.80468500  0.57160700  1
  F  F7  1  0.87782500  0.19531500  0.42839300  1
  F  F8  1  0.41052500  0.85726600  0.70565300  1
  F  F9  1  0.58947500  0.14273400  0.29434700  1
  F  F10  1  0.34525100  0.12496900  0.76431500  1
  F  F11  1  0.65474900  0.87503100  0.23568500  1
  F  F12  1  0.64881400  0.58910200  0.21684900  1
  F  F13  1  0.35118600  0.41089800  0.78315100  1
  F  F14  1  0.65102300  0.31799200  0.48577700  1
  F  F15  1  0.34897700  0.68200800  0.51422300  1
  F  F16  1  0.36401400  0.25782900  0.36071300  1
  F  F17  1  0.63598600  0.74217100  0.63928700  1
  F  F18  1  0.68286500  0.65336300  0.02782700  1
  F  F19  1  0.31713500  0.34663700  0.97217300  1
  F  F20  1  0.35084600  0.82135600  0.10048700  1
  F  F21  1  0.64915400  0.17864400  0.89951300  1
  F  F22  1  0.97559700  0.70184700  0.16078500  1
  F  F23  1  0.02440300  0.29815300  0.83921500  1
  F  F24  1  0.92170700  0.24579900  0.24121300  1
  F  F25  1  0.07829300  0.75420100  0.75878700  1
  F  F26  1  0.35544500  0.56848000  0.36961300  1
  F  F27  1  0.64455500  0.43152000  0.63038700  1
  F  F28  1  0.00462400  0.81720600  0.90566300  1
  F  F29  1  0.99537600  0.18279400  0.09433700  1
  F  F30  1  0.95732600  0.32402100  0.63326100  1
  F  F31  1  0.04267400  0.67597900  0.36673900  1
  F  F32  1  0.71905700  0.55860100  0.89772300  1
  F  F33  1  0.28094300  0.44139900  0.10227700  1
