# generated using pymatgen
data_U3As2O19
_symmetry_space_group_name_H-M   'P 1'
_cell_length_a   7.31923000
_cell_length_b   12.02396300
_cell_length_c   20.77534200
_cell_angle_alpha   90.00000000
_cell_angle_beta   90.00000000
_cell_angle_gamma   90.00000000
_symmetry_Int_Tables_number   1
_chemical_formula_structural   U3As2O19
_chemical_formula_sum   'U12 As8 O76'
_cell_volume   1828.35787907
_cell_formula_units_Z   4
loop_
 _symmetry_equiv_pos_site_id
 _symmetry_equiv_pos_as_xyz
  1  'x, y, z'
loop_
 _atom_site_type_symbol
 _atom_site_label
 _atom_site_symmetry_multiplicity
 _atom_site_fract_x
 _atom_site_fract_y
 _atom_site_fract_z
 _atom_site_occupancy
  U  U0  1  0.83937600  0.84004400  0.07895600  1
  U  U1  1  0.33937600  0.15995600  0.92104400  1
  U  U2  1  0.33937600  0.84004400  0.42104400  1
  U  U3  1  0.83937600  0.15995600  0.57895600  1
  U  U4  1  0.33954600  0.72954200  0.14867100  1
  U  U5  1  0.83954600  0.27045800  0.85132900  1
  U  U6  1  0.83954600  0.72954200  0.35132900  1
  U  U7  1  0.33954600  0.27045800  0.64867100  1
  U  U8  1  0.85583900  0.33624400  0.10469500  1
  U  U9  1  0.35583900  0.66375600  0.89530500  1
  U  U10  1  0.35583900  0.33624400  0.39530500  1
  U  U11  1  0.85583900  0.66375600  0.60469500  1
  As  As12  1  0.84650600  0.63030100  0.18511200  1
  As  As13  1  0.34650600  0.36969900  0.81488800  1
  As  As14  1  0.34650600  0.63030100  0.31488800  1
  As  As15  1  0.84650600  0.36969900  0.68511200  1
  As  As16  1  0.33334800  0.89607800  0.01917000  1
  As  As17  1  0.83334800  0.10392200  0.98083000  1
  As  As18  1  0.83334800  0.89607800  0.48083000  1
  As  As19  1  0.33334800  0.10392200  0.51917000  1
  O  O20  1  0.34767400  0.03535900  0.00471700  1
  O  O21  1  0.84767400  0.96464100  0.99528300  1
  O  O22  1  0.84767400  0.03535900  0.49528300  1
  O  O23  1  0.34767400  0.96464100  0.50471700  1
  O  O24  1  0.66437900  0.70189200  0.15216600  1
  O  O25  1  0.16437900  0.29810800  0.84783400  1
  O  O26  1  0.16437900  0.70189200  0.34783400  1
  O  O27  1  0.66437900  0.29810800  0.65216600  1
  O  O28  1  0.83111900  0.60957800  0.26621100  1
  O  O29  1  0.33111900  0.39042200  0.73378900  1
  O  O30  1  0.33111900  0.60957800  0.23378900  1
  O  O31  1  0.83111900  0.39042200  0.76621100  1
  O  O32  1  0.16462700  0.86340000  0.07442500  1
  O  O33  1  0.66462700  0.13660000  0.92557500  1
  O  O34  1  0.66462700  0.86340000  0.42557500  1
  O  O35  1  0.16462700  0.13660000  0.57442500  1
  O  O36  1  0.01554700  0.72192300  0.16108400  1
  O  O37  1  0.51554700  0.27807700  0.83891600  1
  O  O38  1  0.51554700  0.72192300  0.33891600  1
  O  O39  1  0.01554700  0.27807700  0.66108400  1
  O  O40  1  0.35971700  0.84243900  0.20483900  1
  O  O41  1  0.85971700  0.15756100  0.79516100  1
  O  O42  1  0.85971700  0.84243900  0.29516100  1
  O  O43  1  0.35971700  0.15756100  0.70483900  1
  O  O44  1  0.31819200  0.61844700  0.09176300  1
  O  O45  1  0.81819200  0.38155300  0.90823700  1
  O  O46  1  0.81819200  0.61844700  0.40823700  1
  O  O47  1  0.31819200  0.38155300  0.59176300  1
  O  O48  1  0.86456200  0.72831900  0.02284500  1
  O  O49  1  0.36456200  0.27168100  0.97715500  1
  O  O50  1  0.36456200  0.72831900  0.47715500  1
  O  O51  1  0.86456200  0.27168100  0.52284500  1
  O  O52  1  0.88503800  0.50277600  0.15094600  1
  O  O53  1  0.38503800  0.49722400  0.84905400  1
  O  O54  1  0.38503800  0.50277600  0.34905400  1
  O  O55  1  0.88503800  0.49722400  0.65094600  1
  O  O56  1  0.51488700  0.84323300  0.06296100  1
  O  O57  1  0.01488700  0.15676700  0.93703900  1
  O  O58  1  0.01488700  0.84323300  0.43703900  1
  O  O59  1  0.51488700  0.15676700  0.56296100  1
  O  O60  1  0.81700100  0.94868400  0.13770200  1
  O  O61  1  0.31700100  0.05131600  0.86229800  1
  O  O62  1  0.31700100  0.94868400  0.36229800  1
  O  O63  1  0.81700100  0.05131600  0.63770200  1
  O  O64  1  0.31051900  0.82625700  0.94763200  1
  O  O65  1  0.81051900  0.17374300  0.05236800  1
  O  O66  1  0.81051900  0.82625700  0.55236800  1
  O  O67  1  0.31051900  0.17374300  0.44763200  1
  O  O68  1  0.02925200  0.36576600  0.04426600  1
  O  O69  1  0.52925200  0.63423400  0.95573400  1
  O  O70  1  0.52925200  0.36576600  0.45573400  1
  O  O71  1  0.02925200  0.63423400  0.54426600  1
  O  O72  1  0.78108600  0.27929200  0.18233800  1
  O  O73  1  0.28108600  0.72070800  0.81766200  1
  O  O74  1  0.28108600  0.27929200  0.31766200  1
  O  O75  1  0.78108600  0.72070800  0.68233800  1
  O  O76  1  0.64238400  0.38897200  0.06521600  1
  O  O77  1  0.14238400  0.61102800  0.93478400  1
  O  O78  1  0.14238400  0.38897200  0.43478400  1
  O  O79  1  0.64238400  0.61102800  0.56521600  1
  O  O80  1  0.21292400  0.31421900  0.17587500  1
  O  O81  1  0.71292400  0.68578100  0.82412500  1
  O  O82  1  0.71292400  0.31421900  0.32412500  1
  O  O83  1  0.21292400  0.68578100  0.67587500  1
  O  O84  1  0.18064500  0.22090400  0.15349200  1
  O  O85  1  0.68064500  0.77909600  0.84650800  1
  O  O86  1  0.68064500  0.22090400  0.34650800  1
  O  O87  1  0.18064500  0.77909600  0.65349200  1
  O  O88  1  0.04467600  0.07923600  0.27148200  1
  O  O89  1  0.54467600  0.92076400  0.72851800  1
  O  O90  1  0.54467600  0.07923600  0.22851800  1
  O  O91  1  0.04467600  0.92076400  0.77148200  1
  O  O92  1  0.49155700  0.11038800  0.17618600  1
  O  O93  1  0.99155700  0.88961200  0.82381400  1
  O  O94  1  0.99155700  0.11038800  0.32381400  1
  O  O95  1  0.49155700  0.88961200  0.67618600  1
