# generated using pymatgen
data_Na4XeO12
_symmetry_space_group_name_H-M   'P 1'
_cell_length_a   14.57603311
_cell_length_b   10.73210376
_cell_length_c   7.00348386
_cell_angle_alpha   90.00000000
_cell_angle_beta   90.00000000
_cell_angle_gamma   90.00000000
_symmetry_Int_Tables_number   1
_chemical_formula_structural   Na4XeO12
_chemical_formula_sum   'Na16 Xe4 O48'
_cell_volume   1095.56548366
_cell_formula_units_Z   4
loop_
 _symmetry_equiv_pos_site_id
 _symmetry_equiv_pos_as_xyz
  1  'x, y, z'
loop_
 _atom_site_type_symbol
 _atom_site_label
 _atom_site_symmetry_multiplicity
 _atom_site_fract_x
 _atom_site_fract_y
 _atom_site_fract_z
 _atom_site_occupancy
  Na  Na0  1  0.48701294  0.17840769  0.05825903  1
  Na  Na1  1  0.98701294  0.32159231  0.94174097  1
  Na  Na2  1  0.51298706  0.67840769  0.44174097  1
  Na  Na3  1  0.01298706  0.82159231  0.55825903  1
  Na  Na4  1  0.51298706  0.82159231  0.94174097  1
  Na  Na5  1  0.01298706  0.67840769  0.05825903  1
  Na  Na6  1  0.48701294  0.32159231  0.55825903  1
  Na  Na7  1  0.98701294  0.17840769  0.44174097  1
  Na  Na8  1  0.77281538  0.13026940  0.02631423  1
  Na  Na9  1  0.27281538  0.36973060  0.97368577  1
  Na  Na10  1  0.22718462  0.63026940  0.47368577  1
  Na  Na11  1  0.72718462  0.86973060  0.52631423  1
  Na  Na12  1  0.22718462  0.86973060  0.97368577  1
  Na  Na13  1  0.72718462  0.63026940  0.02631423  1
  Na  Na14  1  0.77281538  0.36973060  0.52631423  1
  Na  Na15  1  0.27281538  0.13026940  0.47368577  1
  Xe  Xe16  1  0.50000000  0.00000000  0.50000000  1
  Xe  Xe17  1  -0.00000000  0.50000000  0.50000000  1
  Xe  Xe18  1  0.50000000  0.50000000  -0.00000000  1
  Xe  Xe19  1  -0.00000000  0.00000000  -0.00000000  1
  O  O20  1  0.62077427  0.96823071  0.10076372  1
  O  O21  1  0.12077427  0.53176929  0.89923628  1
  O  O22  1  0.37922573  0.46823071  0.39923628  1
  O  O23  1  0.87922573  0.03176929  0.60076372  1
  O  O24  1  0.37922573  0.03176929  0.89923628  1
  O  O25  1  0.87922573  0.46823071  0.10076372  1
  O  O26  1  0.62077427  0.53176929  0.60076372  1
  O  O27  1  0.12077427  0.96823071  0.39923628  1
  O  O28  1  0.61032929  0.20317765  0.75463460  1
  O  O29  1  0.11032929  0.29682235  0.24536540  1
  O  O30  1  0.38967071  0.70317765  0.74536540  1
  O  O31  1  0.88967071  0.79682235  0.25463460  1
  O  O32  1  0.38967071  0.79682235  0.24536540  1
  O  O33  1  0.88967071  0.70317765  0.75463460  1
  O  O34  1  0.61032929  0.29682235  0.25463460  1
  O  O35  1  0.11032929  0.20317765  0.74536540  1
  O  O36  1  0.42899454  0.15349202  0.36476464  1
  O  O37  1  0.92899454  0.34650798  0.63523536  1
  O  O38  1  0.57100546  0.65349202  0.13523536  1
  O  O39  1  0.07100546  0.84650798  0.86476464  1
  O  O40  1  0.57100546  0.84650798  0.63523536  1
  O  O41  1  0.07100546  0.65349202  0.36476464  1
  O  O42  1  0.42899454  0.34650798  0.86476464  1
  O  O43  1  0.92899454  0.15349202  0.13523536  1
  O  O44  1  0.67173797  0.22266576  0.32075574  1
  O  O45  1  0.17173797  0.27733424  0.67924426  1
  O  O46  1  0.32826203  0.72266576  0.17924426  1
  O  O47  1  0.82826203  0.77733424  0.82075574  1
  O  O48  1  0.32826203  0.77733424  0.67924426  1
  O  O49  1  0.82826203  0.72266576  0.32075574  1
  O  O50  1  0.67173797  0.27733424  0.82075574  1
  O  O51  1  0.17173797  0.22266576  0.17924426  1
  O  O52  1  0.83824957  0.12190702  0.68310312  1
  O  O53  1  0.33824957  0.37809298  0.31689688  1
  O  O54  1  0.16175043  0.62190702  0.81689688  1
  O  O55  1  0.66175043  0.87809298  0.18310312  1
  O  O56  1  0.16175043  0.87809298  0.31689688  1
  O  O57  1  0.66175043  0.62190702  0.68310312  1
  O  O58  1  0.83824957  0.37809298  0.18310312  1
  O  O59  1  0.33824957  0.12190702  0.81689688  1
  O  O60  1  0.67088191  0.50643191  0.27926784  1
  O  O61  1  0.17088191  0.99356809  0.72073216  1
  O  O62  1  0.32911809  0.00643191  0.22073216  1
  O  O63  1  0.82911809  0.49356809  0.77926784  1
  O  O64  1  0.32911809  0.49356809  0.72073216  1
  O  O65  1  0.82911809  0.00643191  0.27926784  1
  O  O66  1  0.67088191  0.99356809  0.77926784  1
  O  O67  1  0.17088191  0.50643191  0.22073216  1
