# generated using pymatgen
data_CsNaF3
_symmetry_space_group_name_H-M   'P 1'
_cell_length_a   4.48507393
_cell_length_b   6.66062971
_cell_length_c   12.05630997
_cell_angle_alpha   90.00000000
_cell_angle_beta   90.00000000
_cell_angle_gamma   90.00000000
_symmetry_Int_Tables_number   1
_chemical_formula_structural   CsNaF3
_chemical_formula_sum   'Cs4 Na4 F12'
_cell_volume   360.16317123
_cell_formula_units_Z   4
loop_
 _symmetry_equiv_pos_site_id
 _symmetry_equiv_pos_as_xyz
  1  'x, y, z'
loop_
 _atom_site_type_symbol
 _atom_site_label
 _atom_site_symmetry_multiplicity
 _atom_site_fract_x
 _atom_site_fract_y
 _atom_site_fract_z
 _atom_site_occupancy
  Cs  Cs0  1  0.75000000  0.07812847  0.65457458  1
  Cs  Cs1  1  0.25000000  0.92187153  0.34542542  1
  Cs  Cs2  1  0.75000000  0.57812847  0.84542542  1
  Cs  Cs3  1  0.25000000  0.42187153  0.15457458  1
  Na  Na4  1  0.25000000  0.04365645  0.88265345  1
  Na  Na5  1  0.75000000  0.95634355  0.11734655  1
  Na  Na6  1  0.25000000  0.54365645  0.61734655  1
  Na  Na7  1  0.75000000  0.45634355  0.38265345  1
  F  F8  1  0.75000000  0.24466450  0.00764854  1
  F  F9  1  0.25000000  0.75533550  -0.00764854  1
  F  F10  1  0.75000000  0.74466450  0.49235146  1
  F  F11  1  0.25000000  0.25533550  0.50764854  1
  F  F12  1  0.25000000  -0.01243905  0.09034854  1
  F  F13  1  0.75000000  0.01243905  0.90965146  1
  F  F14  1  0.25000000  0.48756095  0.40965146  1
  F  F15  1  0.75000000  0.51243905  0.59034854  1
  F  F16  1  0.25000000  0.31446738  0.76639706  1
  F  F17  1  0.75000000  0.68553262  0.23360294  1
  F  F18  1  0.25000000  0.81446738  0.73360294  1
  F  F19  1  0.75000000  0.18553262  0.26639706  1
