# generated using pymatgen
data_MgMn6(OF)6
_symmetry_space_group_name_H-M   'P 1'
_cell_length_a   5.27664373
_cell_length_b   14.62573339
_cell_length_c   3.06999424
_cell_angle_alpha   89.97230497
_cell_angle_beta   90.03182896
_cell_angle_gamma   98.78061336
_symmetry_Int_Tables_number   1
_chemical_formula_structural   MgMn6(OF)6
_chemical_formula_sum   'Mg1 Mn6 O6 F6'
_cell_volume   234.14933501
_cell_formula_units_Z   1
loop_
 _symmetry_equiv_pos_site_id
 _symmetry_equiv_pos_as_xyz
  1  'x, y, z'
loop_
 _atom_site_type_symbol
 _atom_site_label
 _atom_site_symmetry_multiplicity
 _atom_site_fract_x
 _atom_site_fract_y
 _atom_site_fract_z
 _atom_site_occupancy
  Mg  Mg0  1  0.58099862  0.00645202  0.01265825  1
  Mn  Mn1  1  0.09626241  0.97960102  0.01198637  1
  Mn  Mn2  1  0.99172847  0.34448966  0.01019015  1
  Mn  Mn3  1  0.94919313  0.65995634  0.00974127  1
  Mn  Mn4  1  0.48868215  0.19462653  0.51122999  1
  Mn  Mn5  1  0.48086072  0.49934945  0.50976998  1
  Mn  Mn6  1  0.44590773  0.80697193  0.51106538  1
  O  O7  1  0.33926157  0.94483623  0.51215210  1
  O  O8  1  0.36551080  0.10954000  0.01154570  1
  O  O9  1  0.23958418  0.75744926  0.01078877  1
  O  O10  1  0.30238262  0.43302970  0.00967745  1
  O  O11  1  0.68267239  0.25288915  0.01108185  1
  O  O12  1  0.64667854  0.56927641  0.00976182  1
  F  F13  1  0.15390047  0.27107268  0.50999262  1
  F  F14  1  0.11636455  0.59930518  0.50722114  1
  F  F15  1  0.73523016  0.88890545  0.01313878  1
  F  F16  1  0.83639368  0.04384300  0.51288219  1
  F  F17  1  0.83034956  0.40968416  0.51025662  1
  F  F18  1  0.77359425  0.72872083  0.51319256  1
