# generated using pymatgen
data_CaCd4(TcO3)4
_symmetry_space_group_name_H-M   'P 1'
_cell_length_a   5.46719585
_cell_length_b   5.60736533
_cell_length_c   9.11254329
_cell_angle_alpha   97.76551041
_cell_angle_beta   93.69437198
_cell_angle_gamma   88.06120795
_symmetry_Int_Tables_number   1
_chemical_formula_structural   CaCd4(TcO3)4
_chemical_formula_sum   'Ca1 Cd4 Tc4 O12'
_cell_volume   276.13297346
_cell_formula_units_Z   1
loop_
 _symmetry_equiv_pos_site_id
 _symmetry_equiv_pos_as_xyz
  1  'x, y, z'
loop_
 _atom_site_type_symbol
 _atom_site_label
 _atom_site_symmetry_multiplicity
 _atom_site_fract_x
 _atom_site_fract_y
 _atom_site_fract_z
 _atom_site_occupancy
  Ca  Ca0  1  0.98729800  0.81978400  0.37212500  1
  Cd  Cd1  1  0.52636200  0.54312700  0.21182500  1
  Cd  Cd2  1  0.14644100  0.12242800  0.15565900  1
  Cd  Cd3  1  0.47221500  0.47604600  0.75992300  1
  Cd  Cd4  1  0.01021300  0.98113100  0.75999600  1
  Tc  Tc5  1  0.01276900  0.55314100  0.98077300  1
  Tc  Tc6  1  0.48591800  0.94343700  0.53381800  1
  Tc  Tc7  1  0.96544300  0.42098100  0.56272100  1
  Tc  Tc8  1  0.54440900  0.03578600  0.97557300  1
  O  O9  1  0.82002500  0.86364800  0.07449100  1
  O  O10  1  0.76814200  0.14263900  0.50356400  1
  O  O11  1  0.25516100  0.21988100  0.56698700  1
  O  O12  1  0.30857900  0.75787800  0.95190300  1
  O  O13  1  0.22238300  0.26148000  0.90640000  1
  O  O14  1  0.20593400  0.72923100  0.58855300  1
  O  O15  1  0.69025900  0.63527900  0.47853300  1
  O  O16  1  0.73209000  0.34499800  0.01729000  1
  O  O17  1  0.38741800  0.90868600  0.32009400  1
  O  O18  1  0.11375500  0.51961300  0.19262200  1
  O  O19  1  0.60031000  0.04300500  0.76222500  1
  O  O20  1  0.86987500  0.57661200  0.76659500  1
