# generated using pymatgen
data_La3Sn13Ir4
_symmetry_space_group_name_H-M   'P 1'
_cell_length_a   9.82254711
_cell_length_b   9.82258554
_cell_length_c   9.82255532
_cell_angle_alpha   89.99996348
_cell_angle_beta   89.99993129
_cell_angle_gamma   90.00008073
_symmetry_Int_Tables_number   1
_chemical_formula_structural   La3Sn13Ir4
_chemical_formula_sum   'La6 Sn26 Ir8'
_cell_volume   947.70773088
_cell_formula_units_Z   2
loop_
 _symmetry_equiv_pos_site_id
 _symmetry_equiv_pos_as_xyz
  1  'x, y, z'
loop_
 _atom_site_type_symbol
 _atom_site_label
 _atom_site_symmetry_multiplicity
 _atom_site_fract_x
 _atom_site_fract_y
 _atom_site_fract_z
 _atom_site_occupancy
  La  La0  1  0.49999978  -0.00000167  0.75000035  1
  La  La1  1  0.00000089  0.24999888  0.50000130  1
  La  La2  1  0.75000284  0.50000196  -0.00000079  1
  La  La3  1  0.49999967  -0.00000161  0.24999939  1
  La  La4  1  -0.00000085  0.75000000  0.50000117  1
  La  La5  1  0.24999694  0.50000096  -0.00000044  1
  Sn  Sn6  1  0.49999954  0.50000164  0.49999996  1
  Sn  Sn7  1  0.00000025  -0.00000152  0.00000034  1
  Sn  Sn8  1  0.65262083  0.19450077  0.50000055  1
  Sn  Sn9  1  0.80549859  0.50000040  0.65262045  1
  Sn  Sn10  1  0.49999898  0.34738015  0.80550459  1
  Sn  Sn11  1  0.34738017  0.80549818  0.50000020  1
  Sn  Sn12  1  0.19450093  0.49999914  0.34737955  1
  Sn  Sn13  1  0.50000108  0.65262084  0.19449569  1
  Sn  Sn14  1  0.65261963  0.80549876  0.50000031  1
  Sn  Sn15  1  0.80549840  0.50000031  0.34737948  1
  Sn  Sn16  1  0.34737923  0.19450016  0.50000163  1
  Sn  Sn17  1  0.19450243  0.49999816  0.65262029  1
  Sn  Sn18  1  0.50000051  0.65262110  0.80550473  1
  Sn  Sn19  1  0.50000043  0.34738080  0.19449479  1
  Sn  Sn20  1  0.15262105  0.00000180  0.69449980  1
  Sn  Sn21  1  0.30550484  0.15261994  -0.00000167  1
  Sn  Sn22  1  0.00000093  0.30550271  0.84737825  1
  Sn  Sn23  1  0.84737910  0.00000039  0.30550041  1
  Sn  Sn24  1  0.69449419  0.84737829  -0.00000041  1
  Sn  Sn25  1  -0.00000133  0.69449950  0.15262065  1
  Sn  Sn26  1  0.15262311  0.00000044  0.30549895  1
  Sn  Sn27  1  0.30550508  0.84737865  -0.00000050  1
  Sn  Sn28  1  0.84737867  0.00000015  0.69449994  1
  Sn  Sn29  1  0.69449434  0.15262011  -0.00000023  1
  Sn  Sn30  1  -0.00000026  0.30550223  0.15262197  1
  Sn  Sn31  1  -0.00000164  0.69449874  0.84737918  1
  Ir  Ir32  1  0.74999778  0.24999924  0.75000114  1
  Ir  Ir33  1  0.25000178  0.75000008  0.24999875  1
  Ir  Ir34  1  0.74999834  0.74999929  0.24999824  1
  Ir  Ir35  1  0.25000146  0.24999952  0.75000124  1
  Ir  Ir36  1  0.25000286  0.75000088  0.75000210  1
  Ir  Ir37  1  0.74999847  0.25000034  0.24999818  1
  Ir  Ir38  1  0.25000064  0.25000054  0.24999939  1
  Ir  Ir39  1  0.74999734  0.74999977  0.75000208  1
