# generated using pymatgen
data_MgTe4Mo3W(SeS)2
_symmetry_space_group_name_H-M   'P 1'
_cell_length_a   3.39152305
_cell_length_b   3.39123551
_cell_length_c   46.50181706
_cell_angle_alpha   90.00140606
_cell_angle_beta   89.99425021
_cell_angle_gamma   119.98351366
_symmetry_Int_Tables_number   1
_chemical_formula_structural   MgTe4Mo3W(SeS)2
_chemical_formula_sum   'Mg1 Te4 Mo3 W1 Se2 S2'
_cell_volume   463.26063784
_cell_formula_units_Z   1
loop_
 _symmetry_equiv_pos_site_id
 _symmetry_equiv_pos_as_xyz
  1  'x, y, z'
loop_
 _atom_site_type_symbol
 _atom_site_label
 _atom_site_symmetry_multiplicity
 _atom_site_fract_x
 _atom_site_fract_y
 _atom_site_fract_z
 _atom_site_occupancy
  Mg  Mg0  1  0.00006000  0.00000300  0.18213300  1
  Te  Te1  1  0.33335000  0.66664700  0.33009400  1
  Te  Te2  1  0.33334400  0.66655800  0.69773100  1
  Te  Te3  1  0.33339200  0.66680200  0.24868200  1
  Te  Te4  1  0.33348400  0.66672200  0.61704900  1
  Mo  Mo5  1  0.33333000  0.66637000  0.08586800  1
  Mo  Mo6  1  0.33335900  0.66651200  0.46950700  1
  Mo  Mo7  1  0.66669500  0.33346100  0.65741100  1
  W  W8  1  0.66661500  0.33358500  0.28955700  1
  Se  Se9  1  0.66659300  0.33330900  0.05051800  1
  Se  Se10  1  0.66653700  0.33314700  0.12173000  1
  S  S11  1  0.66666300  0.33348100  0.43719000  1
  S  S12  1  0.66657800  0.33340400  0.50183700  1
