# generated using pymatgen
data_K4Ba2Na4Ti8Mn(Si8O33)2
_symmetry_space_group_name_H-M   'P 1'
_cell_length_a   10.47779391
_cell_length_b   10.47779391
_cell_length_c   14.16907815
_cell_angle_alpha   70.32552021
_cell_angle_beta   70.32552021
_cell_angle_gamma   83.15031355
_symmetry_Int_Tables_number   1
_chemical_formula_structural   K4Ba2Na4Ti8Mn(Si8O33)2
_chemical_formula_sum   'K4 Ba2 Na4 Ti8 Mn1 Si16 O66'
_cell_volume   1379.18821485
_cell_formula_units_Z   1
loop_
 _symmetry_equiv_pos_site_id
 _symmetry_equiv_pos_as_xyz
  1  'x, y, z'
loop_
 _atom_site_type_symbol
 _atom_site_label
 _atom_site_symmetry_multiplicity
 _atom_site_fract_x
 _atom_site_fract_y
 _atom_site_fract_z
 _atom_site_occupancy
  K  K0  1  0.60274447  0.60274447  0.82586781  1
  K  K1  1  0.39725553  0.39725553  0.17413219  1
  K  K2  1  0.09748131  0.09748131  0.31550715  1
  K  K3  1  0.90251869  0.90251869  0.68449285  1
  Ba  Ba4  1  0.44209533  0.44209533  0.65844601  1
  Ba  Ba5  1  0.55790467  0.55790467  0.34155399  1
  Na  Na6  1  0.01206495  0.47737106  0.68226136  1
  Na  Na7  1  0.52262894  0.98793505  0.31773864  1
  Na  Na8  1  0.98793505  0.52262894  0.31773864  1
  Na  Na9  1  0.47737106  0.01206495  0.68226136  1
  Ti  Ti10  1  0.24904259  0.74298311  0.74300013  1
  Ti  Ti11  1  0.25701689  0.75095741  0.25699987  1
  Ti  Ti12  1  0.75095741  0.25701689  0.25699987  1
  Ti  Ti13  1  0.74298311  0.24904259  0.74300013  1
  Ti  Ti14  1  0.27560038  0.72439962  0.50000000  1
  Ti  Ti15  1  0.72439962  0.27560038  0.50000000  1
  Ti  Ti16  1  0.23030547  0.76969453  -0.00000000  1
  Ti  Ti17  1  0.76969453  0.23030547  0.00000000  1
  Mn  Mn18  1  -0.00000000  0.00000000  -0.00000000  1
  Si  Si19  1  0.76747947  0.54691512  0.55446490  1
  Si  Si20  1  0.45308488  0.23252053  0.44553510  1
  Si  Si21  1  0.23252053  0.45308488  0.44553510  1
  Si  Si22  1  0.54691512  0.76747947  0.55446490  1
  Si  Si23  1  0.04422529  0.26159903  0.06251194  1
  Si  Si24  1  0.73840097  0.95577471  0.93748806  1
  Si  Si25  1  0.95577471  0.73840097  0.93748806  1
  Si  Si26  1  0.26159903  0.04422529  0.06251194  1
  Si  Si27  1  0.23410033  0.00939444  0.55128368  1
  Si  Si28  1  0.99060556  0.76589967  0.44871632  1
  Si  Si29  1  0.76589967  0.99060556  0.44871632  1
  Si  Si30  1  0.00939444  0.23410033  0.55128368  1
  Si  Si31  1  0.26172574  0.48189280  0.94796859  1
  Si  Si32  1  0.51810720  0.73827426  0.05203141  1
  Si  Si33  1  0.73827426  0.51810720  0.05203141  1
  Si  Si34  1  0.48189280  0.26172574  0.94796859  1
  O  O35  1  0.29814941  0.52063798  0.50662128  1
  O  O36  1  0.47936202  0.70185059  0.49337872  1
  O  O37  1  0.70185059  0.47936202  0.49337872  1
  O  O38  1  0.52063798  0.29814941  0.50662128  1
  O  O39  1  0.96607194  0.19237876  0.00772717  1
  O  O40  1  0.80762124  0.03392806  0.99227283  1
  O  O41  1  0.03392806  0.80762124  0.99227283  1
  O  O42  1  0.19237876  0.96607194  0.00772717  1
  O  O43  1  0.18139095  0.72671618  0.15103949  1
  O  O44  1  0.27328382  0.81860905  0.84896051  1
  O  O45  1  0.81860905  0.27328382  0.84896051  1
  O  O46  1  0.72671618  0.18139095  0.15103949  1
  O  O47  1  0.24541447  0.65692214  0.64910736  1
  O  O48  1  0.34307786  0.75458553  0.35089264  1
  O  O49  1  0.75458553  0.34307786  0.35089264  1
  O  O50  1  0.65692214  0.24541447  0.64910736  1
  O  O51  1  0.08075135  0.71446945  0.52898379  1
  O  O52  1  0.28553055  0.91924865  0.47101621  1
  O  O53  1  0.91924865  0.28553055  0.47101621  1
  O  O54  1  0.71446945  0.08075135  0.52898379  1
  O  O55  1  0.21693192  0.58047280  0.02222610  1
  O  O56  1  0.41952720  0.78306808  0.97777390  1
  O  O57  1  0.78306808  0.41952720  0.97777390  1
  O  O58  1  0.58047280  0.21693192  0.02222610  1
  O  O59  1  0.17726705  0.91472055  0.67284156  1
  O  O60  1  0.08527945  0.82273295  0.32715844  1
  O  O61  1  0.82273295  0.08527945  0.32715844  1
  O  O62  1  0.91472055  0.17726705  0.67284156  1
  O  O63  1  0.32490711  0.56508448  0.82288869  1
  O  O64  1  0.43491552  0.67509289  0.17711131  1
  O  O65  1  0.67509289  0.43491552  0.17711131  1
  O  O66  1  0.56508448  0.32490711  0.82288869  1
  O  O67  1  0.11211635  0.11211635  0.51685103  1
  O  O68  1  0.88788365  0.88788365  0.48314897  1
  O  O69  1  0.38400718  0.38400718  0.98556049  1
  O  O70  1  0.61599282  0.61599282  0.01443951  1
  O  O71  1  0.35936783  0.10447504  0.53591963  1
  O  O72  1  0.89552496  0.64063217  0.46408037  1
  O  O73  1  0.64063217  0.89552496  0.46408037  1
  O  O74  1  0.10447504  0.35936783  0.53591963  1
  O  O75  1  0.13646489  0.38582114  0.96827765  1
  O  O76  1  0.61417886  0.86353511  0.03172235  1
  O  O77  1  0.86353511  0.61417886  0.03172235  1
  O  O78  1  0.38582114  0.13646489  0.96827765  1
  O  O79  1  0.64822193  0.64822193  0.60598819  1
  O  O80  1  0.35177807  0.35177807  0.39401181  1
  O  O81  1  0.14623765  0.14623765  0.11102483  1
  O  O82  1  0.85376235  0.85376235  0.88897517  1
  O  O83  1  0.93720386  0.31000848  0.15814267  1
  O  O84  1  0.68999152  0.06279614  0.84185733  1
  O  O85  1  0.06279614  0.68999152  0.84185733  1
  O  O86  1  0.31000848  0.93720386  0.15814267  1
  O  O87  1  0.80821232  0.44135616  0.65374737  1
  O  O88  1  0.55864384  0.19178768  0.34625263  1
  O  O89  1  0.19178768  0.55864384  0.34625263  1
  O  O90  1  0.44135616  0.80821232  0.65374737  1
  O  O91  1  0.05936839  0.05936839  0.86905761  1
  O  O92  1  0.94063161  0.94063161  0.13094239  1
  O  O93  1  0.19185799  0.28069103  0.77354335  1
  O  O94  1  0.71930897  0.80814201  0.22645665  1
  O  O95  1  0.80814201  0.71930897  0.22645665  1
  O  O96  1  0.28069103  0.19185799  0.77354335  1
  O  O97  1  0.90096621  0.60366912  0.80058828  1
  O  O98  1  0.39633088  0.09903379  0.19941172  1
  O  O99  1  0.09903379  0.39633088  0.19941172  1
  O  O100  1  0.60366912  0.90096621  0.80058828  1
