# generated using pymatgen
data_NaMg2(SO4)3
_symmetry_space_group_name_H-M   'P 1'
_cell_length_a   8.57376090
_cell_length_b   8.57602518
_cell_length_c   8.83185350
_cell_angle_alpha   60.89819335
_cell_angle_beta   60.96031951
_cell_angle_gamma   60.00890165
_symmetry_Int_Tables_number   1
_chemical_formula_structural   NaMg2(SO4)3
_chemical_formula_sum   'Na2 Mg4 S6 O24'
_cell_volume   465.56817210
_cell_formula_units_Z   2
loop_
 _symmetry_equiv_pos_site_id
 _symmetry_equiv_pos_as_xyz
  1  'x, y, z'
loop_
 _atom_site_type_symbol
 _atom_site_label
 _atom_site_symmetry_multiplicity
 _atom_site_fract_x
 _atom_site_fract_y
 _atom_site_fract_z
 _atom_site_occupancy
  Na  Na0  1  0.50000360  0.00000140  0.49999983  1
  Na  Na1  1  -0.00000562  0.50000439  0.00000051  1
  Mg  Mg2  1  0.64825832  0.14700672  0.05629658  1
  Mg  Mg3  1  0.35174419  0.85298978  0.94370472  1
  Mg  Mg4  1  0.85154732  0.35299392  0.44370017  1
  Mg  Mg5  1  0.14845080  0.64700393  0.55629974  1
  S  S6  1  0.95474561  0.75001116  0.25000888  1
  S  S7  1  0.04525233  0.24999027  0.74999119  1
  S  S8  1  0.54436978  0.45399958  0.25127478  1
  S  S9  1  0.45563228  0.54599981  0.74872471  1
  S  S10  1  0.24963638  0.04599782  0.24871713  1
  S  S11  1  0.75036362  0.95400123  0.75128335  1
  O  O12  1  0.41077295  0.07004956  0.24508667  1
  O  O13  1  0.58922485  0.92995034  0.75491313  1
  O  O14  1  0.72590709  0.42995235  0.25491026  1
  O  O15  1  0.27409703  0.57004714  0.74508897  1
  O  O16  1  0.77313601  0.91095988  0.24647631  1
  O  O17  1  0.22685990  0.08904488  0.75352383  1
  O  O18  1  0.93056525  0.58906672  0.25352436  1
  O  O19  1  0.06943117  0.41093384  0.74647694  1
  O  O20  1  0.56991723  0.27357434  0.24437112  1
  O  O21  1  0.43008786  0.72642122  0.75562751  1
  O  O22  1  0.08784999  0.22644187  0.25562258  1
  O  O23  1  0.91215121  0.77355382  0.74437661  1
  O  O24  1  0.50846875  0.61018232  0.08779039  1
  O  O25  1  0.49153547  0.38981864  0.91220624  1
  O  O26  1  0.20642280  0.88980833  0.41220593  1
  O  O27  1  0.79357666  0.11019290  0.58779194  1
  O  O28  1  0.29341365  0.01558425  0.08211842  1
  O  O29  1  0.70658930  0.98441458  0.91788375  1
  O  O30  1  0.39112268  0.48441874  0.41786320  1
  O  O31  1  0.60887376  0.51558347  0.58213783  1
  O  O32  1  0.10841128  0.79577048  0.08481577  1
  O  O33  1  0.89158918  0.20422948  0.91518482  1
  O  O34  1  0.98896505  0.70424903  0.41520495  1
  O  O35  1  0.01103227  0.29575181  0.58479688  1
