# generated using pymatgen
data_MgCu2(TeO4)2
_symmetry_space_group_name_H-M   'P 1'
_cell_length_a   6.48195753
_cell_length_b   6.34546366
_cell_length_c   6.34379847
_cell_angle_alpha   54.39374691
_cell_angle_beta   61.73568594
_cell_angle_gamma   61.72249616
_symmetry_Int_Tables_number   1
_chemical_formula_structural   MgCu2(TeO4)2
_chemical_formula_sum   'Mg1 Cu2 Te2 O8'
_cell_volume   179.56242070
_cell_formula_units_Z   1
loop_
 _symmetry_equiv_pos_site_id
 _symmetry_equiv_pos_as_xyz
  1  'x, y, z'
loop_
 _atom_site_type_symbol
 _atom_site_label
 _atom_site_symmetry_multiplicity
 _atom_site_fract_x
 _atom_site_fract_y
 _atom_site_fract_z
 _atom_site_occupancy
  Mg  Mg0  1  0.95097800  0.84196800  0.84082600  1
  Cu  Cu1  1  0.50186200  0.00492200  0.50448200  1
  Cu  Cu2  1  0.50199400  0.50454100  0.00440200  1
  Te  Te3  1  0.01010200  0.50451600  0.50354500  1
  Te  Te4  1  0.48183300  0.50681900  0.50541700  1
  O  O5  1  0.25173200  0.30006700  0.29968100  1
  O  O6  1  0.22716200  0.30661700  0.74953900  1
  O  O7  1  0.22701600  0.75053500  0.30529300  1
  O  O8  1  0.65542300  0.29373300  0.29343800  1
  O  O9  1  0.31544900  0.73951400  0.73902200  1
  O  O10  1  0.83067900  0.72971900  0.23916800  1
  O  O11  1  0.83049600  0.24037500  0.72882600  1
  O  O12  1  0.77777400  0.71417500  0.71344600  1
