# generated using pymatgen
data_LiCaH2SeF
_symmetry_space_group_name_H-M   'P 1'
_cell_length_a   4.06268120
_cell_length_b   4.26420195
_cell_length_c   6.12199837
_cell_angle_alpha   73.01859646
_cell_angle_beta   70.68494543
_cell_angle_gamma   89.80930307
_symmetry_Int_Tables_number   1
_chemical_formula_structural   LiCaH2SeF
_chemical_formula_sum   'Li1 Ca1 H2 Se1 F1'
_cell_volume   95.21205804
_cell_formula_units_Z   1
loop_
 _symmetry_equiv_pos_site_id
 _symmetry_equiv_pos_as_xyz
  1  'x, y, z'
loop_
 _atom_site_type_symbol
 _atom_site_label
 _atom_site_symmetry_multiplicity
 _atom_site_fract_x
 _atom_site_fract_y
 _atom_site_fract_z
 _atom_site_occupancy
  Li  Li0  1  0.10592822  0.06217925  0.05711428  1
  Ca  Ca1  1  0.86627176  0.32983282  0.53517898  1
  H  H2  1  0.93102570  0.87815443  0.40365292  1
  H  H3  1  0.66613369  0.75164014  0.92127631  1
  Se  Se4  1  0.57953480  0.42220042  0.10716518  1
  F  F5  1  0.27772583  0.17359294  0.71342233  1
