# generated using pymatgen
data_ThBeCuN
_symmetry_space_group_name_H-M   'P 1'
_cell_length_a   3.68387722
_cell_length_b   3.68387722
_cell_length_c   8.29759000
_cell_angle_alpha   90.00000000
_cell_angle_beta   90.00000000
_cell_angle_gamma   90.00000000
_symmetry_Int_Tables_number   1
_chemical_formula_structural   ThBeCuN
_chemical_formula_sum   'Th2 Be2 Cu2 N2'
_cell_volume   112.60619040
_cell_formula_units_Z   2
loop_
 _symmetry_equiv_pos_site_id
 _symmetry_equiv_pos_as_xyz
  1  'x, y, z'
loop_
 _atom_site_type_symbol
 _atom_site_label
 _atom_site_symmetry_multiplicity
 _atom_site_fract_x
 _atom_site_fract_y
 _atom_site_fract_z
 _atom_site_occupancy
  Th  Th0  1  0.00000000  0.50000000  0.83630140  1
  Th  Th1  1  0.50000000  0.00000000  0.16369860  1
  Be  Be2  1  0.00000000  0.50000000  0.33096837  1
  Be  Be3  1  0.50000000  0.00000000  0.66903163  1
  Cu  Cu4  1  0.00000000  0.00000000  0.50000000  1
  Cu  Cu5  1  0.50000000  0.50000000  0.50000000  1
  N  N6  1  0.50000000  0.00000000  0.86786611  1
  N  N7  1  0.00000000  0.50000000  0.13213389  1
