# generated using pymatgen
data_CdN2F
_symmetry_space_group_name_H-M   'P 1'
_cell_length_a   3.16763067
_cell_length_b   3.16763067
_cell_length_c   11.03884592
_cell_angle_alpha   81.75093147
_cell_angle_beta   81.75093147
_cell_angle_gamma   90.00000000
_symmetry_Int_Tables_number   1
_chemical_formula_structural   CdN2F
_chemical_formula_sum   'Cd2 N4 F2'
_cell_volume   108.45843248
_cell_formula_units_Z   2
loop_
 _symmetry_equiv_pos_site_id
 _symmetry_equiv_pos_as_xyz
  1  'x, y, z'
loop_
 _atom_site_type_symbol
 _atom_site_label
 _atom_site_symmetry_multiplicity
 _atom_site_fract_x
 _atom_site_fract_y
 _atom_site_fract_z
 _atom_site_occupancy
  N  N0  1  0.37504989  0.12500000  0.25000000  1
  N  N1  1  0.37495011  0.62500000  0.25000000  1
  N  N2  1  0.37500000  0.62495011  0.75000000  1
  N  N3  1  0.87500000  0.62504989  0.75000000  1
  F  F4  1  0.50000000  0.50000000  0.00000000  1
  F  F5  1  0.25000000  0.75000000  0.50000000  1
  Cd  Cd6  1  0.00000000  0.00000000  0.00000000  1
  Cd  Cd7  1  0.75000000  0.25000000  0.50000000  1
