# generated using pymatgen
data_Nd6Co2Cl3O
_symmetry_space_group_name_H-M   'P 1'
_cell_length_a   3.79142092
_cell_length_b   8.59113705
_cell_length_c   9.65623856
_cell_angle_alpha   111.14961565
_cell_angle_beta   101.32183076
_cell_angle_gamma   90.00000000
_symmetry_Int_Tables_number   1
_chemical_formula_structural   Nd6Co2Cl3O
_chemical_formula_sum   'Nd6 Co2 Cl3 O1'
_cell_volume   286.77014748
_cell_formula_units_Z   1
loop_
 _symmetry_equiv_pos_site_id
 _symmetry_equiv_pos_as_xyz
  1  'x, y, z'
loop_
 _atom_site_type_symbol
 _atom_site_label
 _atom_site_symmetry_multiplicity
 _atom_site_fract_x
 _atom_site_fract_y
 _atom_site_fract_z
 _atom_site_occupancy
  Nd  Nd0  1  0.35176641  0.90322434  0.70353283  1
  Nd  Nd1  1  0.67590999  0.55043603  0.35182098  1
  Nd  Nd2  1  0.64823359  0.09677566  0.29646717  1
  Nd  Nd3  1  0.00657463  0.20543225  0.01314826  1
  Nd  Nd4  1  0.99342537  0.79456775  0.98685174  1
  Nd  Nd5  1  0.32409001  0.44956397  0.64817902  1
  Co  Co6  1  0.84117327  0.68101510  0.68234654  1
  Co  Co7  1  0.15882673  0.31898490  0.31765346  1
  Cl  Cl8  1  0.50000000  0.50000000  -0.00000000  1
  Cl  Cl9  1  0.82647930  0.16732941  0.65295861  1
  Cl  Cl10  1  0.17352070  0.83267059  0.34704139  1
  O  O11  1  0.50000000  0.00000000  0.00000000  1
