# generated using pymatgen
data_HfSnSe4
_symmetry_space_group_name_H-M   'P 1'
_cell_length_a   3.76945328
_cell_length_b   6.89725110
_cell_length_c   6.75936596
_cell_angle_alpha   89.09241669
_cell_angle_beta   90.00000000
_cell_angle_gamma   90.00000000
_symmetry_Int_Tables_number   1
_chemical_formula_structural   HfSnSe4
_chemical_formula_sum   'Hf1 Sn1 Se4'
_cell_volume   175.71380123
_cell_formula_units_Z   1
loop_
 _symmetry_equiv_pos_site_id
 _symmetry_equiv_pos_as_xyz
  1  'x, y, z'
loop_
 _atom_site_type_symbol
 _atom_site_label
 _atom_site_symmetry_multiplicity
 _atom_site_fract_x
 _atom_site_fract_y
 _atom_site_fract_z
 _atom_site_occupancy
  Hf  Hf0  1  0.00000000  0.00000000  0.00000000  1
  Sn  Sn1  1  0.50000000  0.00000000  0.50000000  1
  Se  Se2  1  0.00000000  0.77006200  0.67622704  1
  Se  Se3  1  0.50000000  0.23111455  0.83929194  1
  Se  Se4  1  0.50000000  0.76888545  0.16070806  1
  Se  Se5  1  0.00000000  0.22993800  0.32377296  1
