# generated using pymatgen
data_GePd
_symmetry_space_group_name_H-M   'P 1'
_cell_length_a   4.46907704
_cell_length_b   4.25389841
_cell_length_c   13.04167327
_cell_angle_alpha   90.00000000
_cell_angle_beta   90.00000000
_cell_angle_gamma   90.00000000
_symmetry_Int_Tables_number   1
_chemical_formula_structural   GePd
_chemical_formula_sum   'Ge6 Pd6'
_cell_volume   247.93524681
_cell_formula_units_Z   6
loop_
 _symmetry_equiv_pos_site_id
 _symmetry_equiv_pos_as_xyz
  1  'x, y, z'
loop_
 _atom_site_type_symbol
 _atom_site_label
 _atom_site_symmetry_multiplicity
 _atom_site_fract_x
 _atom_site_fract_y
 _atom_site_fract_z
 _atom_site_occupancy
  Ge  Ge0  1  0.00000000  0.89343543  0.62282171  1
  Ge  Ge1  1  0.50000000  0.10656457  0.87717829  1
  Ge  Ge2  1  0.50000000  0.10656457  0.12282171  1
  Ge  Ge3  1  0.00000000  0.89343543  0.37717829  1
  Ge  Ge4  1  0.00000000  0.79533947  0.00000000  1
  Ge  Ge5  1  0.50000000  0.20466053  0.50000000  1
  Pd  Pd6  1  0.00000000  0.93440790  0.81697221  1
  Pd  Pd7  1  0.50000000  0.06559210  0.68302779  1
  Pd  Pd8  1  0.50000000  0.06559210  0.31697221  1
  Pd  Pd9  1  0.00000000  0.93440790  0.18302779  1
  Pd  Pd10  1  0.00000000  0.45897417  0.50000000  1
  Pd  Pd11  1  0.50000000  0.54102583  0.00000000  1
