# generated using pymatgen
data_LuFePbAu
_symmetry_space_group_name_H-M   'P 1'
_cell_length_a   4.88091345
_cell_length_b   4.88091345
_cell_length_c   4.88091345
_cell_angle_alpha   60.00000000
_cell_angle_beta   60.00000000
_cell_angle_gamma   60.00000000
_symmetry_Int_Tables_number   1
_chemical_formula_structural   LuFePbAu
_chemical_formula_sum   'Lu1 Fe1 Pb1 Au1'
_cell_volume   82.22205416
_cell_formula_units_Z   1
loop_
 _symmetry_equiv_pos_site_id
 _symmetry_equiv_pos_as_xyz
  1  'x, y, z'
loop_
 _atom_site_type_symbol
 _atom_site_label
 _atom_site_symmetry_multiplicity
 _atom_site_fract_x
 _atom_site_fract_y
 _atom_site_fract_z
 _atom_site_occupancy
  Au  Au0  1  0.50000043  0.50000043  0.50000043  1
  Fe  Fe1  1  0.74999993  0.74999993  0.74999993  1
  Lu  Lu2  1  0.24999949  0.24999949  0.24999949  1
  Pb  Pb3  1  0.00000000  0.00000000  0.00000000  1
