# generated using pymatgen
data_In2FeCl
_symmetry_space_group_name_H-M   'P 1'
_cell_length_a   6.08804049
_cell_length_b   6.08804049
_cell_length_c   6.08804047
_cell_angle_alpha   150.79458795
_cell_angle_beta   126.83205290
_cell_angle_gamma   61.81327126
_symmetry_Int_Tables_number   1
_chemical_formula_structural   In2FeCl
_chemical_formula_sum   'In2 Fe1 Cl1'
_cell_volume   87.37418737
_cell_formula_units_Z   1
loop_
 _symmetry_equiv_pos_site_id
 _symmetry_equiv_pos_as_xyz
  1  'x, y, z'
loop_
 _atom_site_type_symbol
 _atom_site_label
 _atom_site_symmetry_multiplicity
 _atom_site_fract_x
 _atom_site_fract_y
 _atom_site_fract_z
 _atom_site_occupancy
  Cl  Cl0  1  0.43871846  0.43871846  1.00000000  1
  Fe  Fe1  1  0.26360646  0.76360646  0.50000000  1
  In  In2  1  0.04190940  0.04190940  0.00000000  1
  In  In3  1  0.75576568  0.25576568  0.50000000  1
