# generated using pymatgen
data_NbIBr2
_symmetry_space_group_name_H-M   'P 1'
_cell_length_a   9.32987396
_cell_length_b   9.32987396
_cell_length_c   7.21715102
_cell_angle_alpha   49.73166322
_cell_angle_beta   49.73166322
_cell_angle_gamma   90.00000000
_symmetry_Int_Tables_number   1
_chemical_formula_structural   NbIBr2
_chemical_formula_sum   'Nb2 I2 Br4'
_cell_volume   254.73566286
_cell_formula_units_Z   2
loop_
 _symmetry_equiv_pos_site_id
 _symmetry_equiv_pos_as_xyz
  1  'x, y, z'
loop_
 _atom_site_type_symbol
 _atom_site_label
 _atom_site_symmetry_multiplicity
 _atom_site_fract_x
 _atom_site_fract_y
 _atom_site_fract_z
 _atom_site_occupancy
  I  I0  1  0.00000000  0.00000000  0.00000000  1
  I  I1  1  0.75000000  0.25000000  0.50000000  1
  Nb  Nb2  1  0.50000000  0.50000000  0.00000000  1
  Nb  Nb3  1  0.25000000  0.75000000  0.50000000  1
  Br  Br4  1  0.49327307  0.12500000  0.25000000  1
  Br  Br5  1  0.25672693  0.62500000  0.25000000  1
  Br  Br6  1  0.37500000  0.50672693  0.75000000  1
  Br  Br7  1  0.87500000  0.74327307  0.75000000  1
