# generated using pymatgen
data_BaPtSeO
_symmetry_space_group_name_H-M   'P 1'
_cell_length_a   7.40753500
_cell_length_b   8.21844700
_cell_length_c   5.84159200
_cell_angle_alpha   90.00000000
_cell_angle_beta   90.00000000
_cell_angle_gamma   90.00000000
_symmetry_Int_Tables_number   1
_chemical_formula_structural   BaPtSeO
_chemical_formula_sum   'Ba4 Pt4 Se4 O4'
_cell_volume   355.62697185
_cell_formula_units_Z   4
loop_
 _symmetry_equiv_pos_site_id
 _symmetry_equiv_pos_as_xyz
  1  'x, y, z'
loop_
 _atom_site_type_symbol
 _atom_site_label
 _atom_site_symmetry_multiplicity
 _atom_site_fract_x
 _atom_site_fract_y
 _atom_site_fract_z
 _atom_site_occupancy
  Ba  Ba0  1  0.42547352  0.16220826  0.02353468  1
  Ba  Ba1  1  0.92547251  0.83779210  0.02353468  1
  Ba  Ba2  1  0.07452682  0.16220826  0.52353537  1
  Ba  Ba3  1  0.57452715  0.83779210  0.52353537  1
  O  O4  1  0.06874757  0.12480947  0.02340287  1
  O  O5  1  0.56874790  0.87519090  0.02340287  1
  O  O6  1  0.43125277  0.12480947  0.52340355  1
  O  O7  1  0.93125176  0.87519090  0.52340355  1
  Pt  Pt8  1  0.88664988  0.31181317  0.01554884  1
  Pt  Pt9  1  0.38665089  0.68818598  0.01554884  1
  Pt  Pt10  1  0.61334844  0.31181317  0.51554953  1
  Pt  Pt11  1  0.11334810  0.68818598  0.51554953  1
  Se  Se12  1  0.66263204  0.49183380  0.18751224  1
  Se  Se13  1  0.16263305  0.50816657  0.18751224  1
  Se  Se14  1  0.83736763  0.49183380  0.68751292  1
  Se  Se15  1  0.33736729  0.50816657  0.68751292  1
