# generated using pymatgen
data_La3Nd2In3
_symmetry_space_group_name_H-M   'P 1'
_cell_length_a   3.51825384
_cell_length_b   9.02835950
_cell_length_c   9.02835950
_cell_angle_alpha   120.00000000
_cell_angle_beta   90.00000000
_cell_angle_gamma   90.00000000
_symmetry_Int_Tables_number   1
_chemical_formula_structural   La3Nd2In3
_chemical_formula_sum   'La3 Nd2 In3'
_cell_volume   248.35647651
_cell_formula_units_Z   1
loop_
 _symmetry_equiv_pos_site_id
 _symmetry_equiv_pos_as_xyz
  1  'x, y, z'
loop_
 _atom_site_type_symbol
 _atom_site_label
 _atom_site_symmetry_multiplicity
 _atom_site_fract_x
 _atom_site_fract_y
 _atom_site_fract_z
 _atom_site_occupancy
  La  La0  1  0.00000000  0.74919379  0.74919379  1
  La  La1  1  0.00000000  0.25080621  0.00000000  1
  La  La2  1  0.00000000  0.00000000  0.25080621  1
  Nd  Nd3  1  0.00000000  0.33333333  0.66666667  1
  Nd  Nd4  1  0.00000000  0.66666667  0.33333333  1
  In  In5  1  0.50000000  0.38287947  0.38287947  1
  In  In6  1  0.50000000  0.61712053  0.00000000  1
  In  In7  1  0.50000000  -0.00000000  0.61712053  1
