# generated using pymatgen
data_TlAgClO
_symmetry_space_group_name_H-M   'P 1'
_cell_length_a   3.65359073
_cell_length_b   3.65359072
_cell_length_c   14.82787872
_cell_angle_alpha   82.92317737
_cell_angle_beta   82.92317736
_cell_angle_gamma   60.00000001
_symmetry_Int_Tables_number   1
_chemical_formula_structural   TlAgClO
_chemical_formula_sum   'Tl2 Ag2 Cl2 O2'
_cell_volume   169.67185906
_cell_formula_units_Z   2
loop_
 _symmetry_equiv_pos_site_id
 _symmetry_equiv_pos_as_xyz
  1  'x, y, z'
loop_
 _atom_site_type_symbol
 _atom_site_label
 _atom_site_symmetry_multiplicity
 _atom_site_fract_x
 _atom_site_fract_y
 _atom_site_fract_z
 _atom_site_occupancy
  Tl  Tl0  1  0.00000000  0.00000000  0.00000000  1
  Tl  Tl1  1  0.50000000  0.50000000  0.50000000  1
  Ag  Ag2  1  0.76023320  0.76023320  0.71930039  1
  Ag  Ag3  1  0.23976680  0.23976680  0.28069961  1
  Cl  Cl4  1  0.61337260  0.61337260  0.15988121  1
  Cl  Cl5  1  0.38662740  0.38662740  0.84011879  1
  O  O6  1  0.19075096  0.19075096  0.42774812  1
  O  O7  1  0.80924904  0.80924904  0.57225188  1
