# generated using pymatgen
data_MgTl2Pb5
_symmetry_space_group_name_H-M   'P 1'
_cell_length_a   6.89262456
_cell_length_b   6.89485378
_cell_length_c   6.89470437
_cell_angle_alpha   117.04851573
_cell_angle_beta   117.03735657
_cell_angle_gamma   95.19387823
_symmetry_Int_Tables_number   1
_chemical_formula_structural   MgTl2Pb5
_chemical_formula_sum   'Mg1 Tl2 Pb5'
_cell_volume   240.99293387
_cell_formula_units_Z   1
loop_
 _symmetry_equiv_pos_site_id
 _symmetry_equiv_pos_as_xyz
  1  'x, y, z'
loop_
 _atom_site_type_symbol
 _atom_site_label
 _atom_site_symmetry_multiplicity
 _atom_site_fract_x
 _atom_site_fract_y
 _atom_site_fract_z
 _atom_site_occupancy
  Mg  Mg0  1  0.77912355  0.77887077  0.00008148  1
  Tl  Tl1  1  0.27735894  0.77756113  0.49954102  1
  Tl  Tl2  1  0.77781678  0.27794914  0.50041803  1
  Pb  Pb3  1  0.27797231  0.27803493  0.50036794  1
  Pb  Pb4  1  0.27832064  0.77779236  0.99997830  1
  Pb  Pb5  1  0.77740139  0.27758140  0.99998904  1
  Pb  Pb6  1  0.77755316  0.77760667  0.49965599  1
  Pb  Pb7  1  0.27745024  0.27759859  0.99996819  1
