# generated using pymatgen
data_Rb2Ba8Ca(Sb3O)2
_symmetry_space_group_name_H-M   'P 1'
_cell_length_a   10.46942196
_cell_length_b   10.46942196
_cell_length_c   9.26211845
_cell_angle_alpha   66.28329417
_cell_angle_beta   66.28329417
_cell_angle_gamma   105.65314866
_symmetry_Int_Tables_number   1
_chemical_formula_structural   Rb2Ba8Ca(Sb3O)2
_chemical_formula_sum   'Rb2 Ba8 Ca1 Sb6 O2'
_cell_volume   729.50319922
_cell_formula_units_Z   1
loop_
 _symmetry_equiv_pos_site_id
 _symmetry_equiv_pos_as_xyz
  1  'x, y, z'
loop_
 _atom_site_type_symbol
 _atom_site_label
 _atom_site_symmetry_multiplicity
 _atom_site_fract_x
 _atom_site_fract_y
 _atom_site_fract_z
 _atom_site_occupancy
  Rb  Rb0  1  0.99617824  0.00382176  0.50000000  1
  Rb  Rb1  1  0.58899095  0.41100905  0.50000000  1
  Ba  Ba2  1  0.49217016  0.19425097  0.28789184  1
  Ba  Ba3  1  0.80574903  0.50782984  0.71210816  1
  Ba  Ba4  1  0.17583667  0.50898695  0.28737983  1
  Ba  Ba5  1  0.00964582  0.75755754  0.94684436  1
  Ba  Ba6  1  0.49101305  0.82416333  0.71262017  1
  Ba  Ba7  1  0.24244246  0.99035418  0.05315564  1
  Ba  Ba8  1  0.97366545  0.27201683  0.04604066  1
  Ba  Ba9  1  0.72798317  0.02633455  0.95395934  1
  Ca  Ca10  1  0.40981248  0.59018752  0.50000000  1
  Sb  Sb11  1  0.17456163  0.20573052  0.68615021  1
  Sb  Sb12  1  0.38462853  0.40341861  0.97347701  1
  Sb  Sb13  1  0.79426948  0.82543837  0.31384979  1
  Sb  Sb14  1  0.59658139  0.61537147  0.02652299  1
  Sb  Sb15  1  0.78142015  0.21857985  0.50000000  1
  Sb  Sb16  1  0.22687237  0.77312763  0.50000000  1
  O  O17  1  0.22995892  0.77004108  0.00000000  1
  O  O18  1  0.74433556  0.25566444  0.00000000  1
