# generated using pymatgen
data_LaPuPdAu
_symmetry_space_group_name_H-M   'P 1'
_cell_length_a   3.98116709
_cell_length_b   4.66353191
_cell_length_c   5.85873528
_cell_angle_alpha   90.00000000
_cell_angle_beta   109.86245700
_cell_angle_gamma   90.00000000
_symmetry_Int_Tables_number   1
_chemical_formula_structural   LaPuPdAu
_chemical_formula_sum   'La1 Pu1 Pd1 Au1'
_cell_volume   102.30411277
_cell_formula_units_Z   1
loop_
 _symmetry_equiv_pos_site_id
 _symmetry_equiv_pos_as_xyz
  1  'x, y, z'
loop_
 _atom_site_type_symbol
 _atom_site_label
 _atom_site_symmetry_multiplicity
 _atom_site_fract_x
 _atom_site_fract_y
 _atom_site_fract_z
 _atom_site_occupancy
  La  La0  1  0.14249290  0.00000000  0.28498579  1
  Pu  Pu1  1  0.86354919  0.50000000  0.72709839  1
  Pd  Pd2  1  0.41261540  0.00000000  0.82523080  1
  Au  Au3  1  0.58134351  0.50000000  0.16268702  1
