# generated using pymatgen
data_Tb4MgIr2
_symmetry_space_group_name_H-M   'P 1'
_cell_length_a   7.24347758
_cell_length_b   7.25665049
_cell_length_c   9.31159978
_cell_angle_alpha   127.30626244
_cell_angle_beta   105.13552513
_cell_angle_gamma   83.53396742
_symmetry_Int_Tables_number   1
_chemical_formula_structural   Tb4MgIr2
_chemical_formula_sum   'Tb8 Mg2 Ir4'
_cell_volume   375.14226191
_cell_formula_units_Z   2
loop_
 _symmetry_equiv_pos_site_id
 _symmetry_equiv_pos_as_xyz
  1  'x, y, z'
loop_
 _atom_site_type_symbol
 _atom_site_label
 _atom_site_symmetry_multiplicity
 _atom_site_fract_x
 _atom_site_fract_y
 _atom_site_fract_z
 _atom_site_occupancy
  Tb  Tb0  1  0.97866992  0.00661072  0.22081785  1
  Tb  Tb1  1  0.39432333  0.63043472  0.24516211  1
  Tb  Tb2  1  0.78394685  0.75856151  0.77753973  1
  Tb  Tb3  1  0.85605234  0.07460642  0.59710418  1
  Tb  Tb4  1  0.47711359  0.25840010  0.40291860  1
  Tb  Tb5  1  0.38636975  0.15030945  0.75494810  1
  Tb  Tb6  1  0.34200871  0.71546027  0.89342988  1
  Tb  Tb7  1  0.82283915  0.44911999  0.10750036  1
  Mg  Mg8  1  0.11016601  0.61024782  0.50072918  1
  Mg  Mg9  1  0.16402160  0.16311639  0.99900668  1
  Ir  Ir10  1  0.64230025  0.43660402  0.78681683  1
  Ir  Ir11  1  0.64899956  0.85479884  0.21407204  1
  Ir  Ir12  1  0.56940153  0.13615225  0.06267677  1
  Ir  Ir13  1  0.07378340  0.50557548  0.93727369  1
