# generated using pymatgen
data_Sm6ErTm2Th3
_symmetry_space_group_name_H-M   'P 1'
_cell_length_a   6.20778907
_cell_length_b   6.20778908
_cell_length_c   11.88212000
_cell_angle_alpha   95.00577692
_cell_angle_beta   95.00577692
_cell_angle_gamma   119.94226382
_symmetry_Int_Tables_number   1
_chemical_formula_structural   Sm6ErTm2Th3
_chemical_formula_sum   'Sm6 Er1 Tm2 Th3'
_cell_volume   390.70306067
_cell_formula_units_Z   1
loop_
 _symmetry_equiv_pos_site_id
 _symmetry_equiv_pos_as_xyz
  1  'x, y, z'
loop_
 _atom_site_type_symbol
 _atom_site_label
 _atom_site_symmetry_multiplicity
 _atom_site_fract_x
 _atom_site_fract_y
 _atom_site_fract_z
 _atom_site_occupancy
  Sm  Sm0  1  0.91618049  0.58276776  0.74799410  1
  Sm  Sm1  1  0.75037354  0.75037354  0.25209801  1
  Sm  Sm2  1  0.08381951  0.41723224  0.25200590  1
  Sm  Sm3  1  0.58276776  0.91618049  0.74799410  1
  Sm  Sm4  1  0.24962646  0.24962646  0.74790199  1
  Sm  Sm5  1  0.41723224  0.08381951  0.25200590  1
  Er  Er6  1  0.00000000  0.00000000  0.00000000  1
  Tm  Tm7  1  0.33333471  0.66666529  -0.00000000  1
  Tm  Tm8  1  0.66666529  0.33333471  -0.00000000  1
  Th  Th9  1  0.16665206  0.83334794  0.50000000  1
  Th  Th10  1  0.83334794  0.16665206  0.50000000  1
  Th  Th11  1  0.50000000  0.50000000  0.50000000  1
