# generated using pymatgen
data_Ti3BeCo3
_symmetry_space_group_name_H-M   'P 1'
_cell_length_a   5.44636925
_cell_length_b   5.44636998
_cell_length_c   6.07804729
_cell_angle_alpha   86.34675859
_cell_angle_beta   86.34676365
_cell_angle_gamma   88.50768071
_symmetry_Int_Tables_number   1
_chemical_formula_structural   Ti3BeCo3
_chemical_formula_sum   'Ti6 Be2 Co6'
_cell_volume   179.51703553
_cell_formula_units_Z   2
loop_
 _symmetry_equiv_pos_site_id
 _symmetry_equiv_pos_as_xyz
  1  'x, y, z'
loop_
 _atom_site_type_symbol
 _atom_site_label
 _atom_site_symmetry_multiplicity
 _atom_site_fract_x
 _atom_site_fract_y
 _atom_site_fract_z
 _atom_site_occupancy
  Ti  Ti0  1  0.93821430  0.93821430  0.79846757  1
  Ti  Ti1  1  0.56426595  0.97607132  0.22861777  1
  Ti  Ti2  1  0.97607132  0.56426595  0.22861777  1
  Ti  Ti3  1  0.43573405  0.02392868  0.77138223  1
  Ti  Ti4  1  0.02392868  0.43573405  0.77138223  1
  Ti  Ti5  1  0.06178570  0.06178570  0.20153243  1
  Be  Be6  1  0.49793452  0.49793452  0.69058840  1
  Be  Be7  1  0.50206548  0.50206548  0.30941160  1
  Co  Co8  1  0.24807584  0.24807584  0.48227711  1
  Co  Co9  1  0.24808231  0.75191769  0.50000000  1
  Co  Co10  1  0.75191769  0.24808231  0.50000000  1
  Co  Co11  1  0.33313156  0.66686844  0.00000000  1
  Co  Co12  1  0.66686844  0.33313156  1.00000000  1
  Co  Co13  1  0.75192416  0.75192416  0.51772289  1
