# generated using pymatgen
data_GdDyNi4
_symmetry_space_group_name_H-M   'P 1'
_cell_length_a   5.06254893
_cell_length_b   5.06254893
_cell_length_c   5.06254893
_cell_angle_alpha   60.00000000
_cell_angle_beta   60.00000000
_cell_angle_gamma   60.00000000
_symmetry_Int_Tables_number   1
_chemical_formula_structural   GdDyNi4
_chemical_formula_sum   'Gd1 Dy1 Ni4'
_cell_volume   91.74717530
_cell_formula_units_Z   1
loop_
 _symmetry_equiv_pos_site_id
 _symmetry_equiv_pos_as_xyz
  1  'x, y, z'
loop_
 _atom_site_type_symbol
 _atom_site_label
 _atom_site_symmetry_multiplicity
 _atom_site_fract_x
 _atom_site_fract_y
 _atom_site_fract_z
 _atom_site_occupancy
  Dy  Dy0  1  0.49999963  0.49999963  0.49999963  1
  Gd  Gd1  1  0.24999981  0.24999981  0.24999981  1
  Ni  Ni2  1  0.87478425  0.87478425  0.37564781  1
  Ni  Ni3  1  0.87478425  0.87478425  0.87478425  1
  Ni  Ni4  1  0.87478425  0.37564781  0.87478425  1
  Ni  Ni5  1  0.37564781  0.87478425  0.87478425  1
