# generated using pymatgen
data_NpCo3
_symmetry_space_group_name_H-M   'P 1'
_cell_length_a   4.19722463
_cell_length_b   4.19722463
_cell_length_c   4.19722463
_cell_angle_alpha   60.00000000
_cell_angle_beta   60.00000000
_cell_angle_gamma   60.00000000
_symmetry_Int_Tables_number   1
_chemical_formula_structural   NpCo3
_chemical_formula_sum   'Np1 Co3'
_cell_volume   52.28434132
_cell_formula_units_Z   1
loop_
 _symmetry_equiv_pos_site_id
 _symmetry_equiv_pos_as_xyz
  1  'x, y, z'
loop_
 _atom_site_type_symbol
 _atom_site_label
 _atom_site_symmetry_multiplicity
 _atom_site_fract_x
 _atom_site_fract_y
 _atom_site_fract_z
 _atom_site_occupancy
  Co  Co0  1  0.00000000  0.00000000  0.00000000  1
  Co  Co1  1  0.24999949  0.24999949  0.24999949  1
  Co  Co2  1  0.50000067  0.50000067  0.50000067  1
  Np  Np3  1  0.75000017  0.75000017  0.75000017  1
