# generated using pymatgen
data_PtS
_symmetry_space_group_name_H-M   'P 1'
_cell_length_a   16.93698412
_cell_length_b   16.93698412
_cell_length_c   4.11788891
_cell_angle_alpha   90.00000000
_cell_angle_beta   90.00000000
_cell_angle_gamma   120.00000000
_symmetry_Int_Tables_number   1
_chemical_formula_structural   PtS
_chemical_formula_sum   'Pt2 S2'
_cell_volume   1023.00420445
_cell_formula_units_Z   2
loop_
 _symmetry_equiv_pos_site_id
 _symmetry_equiv_pos_as_xyz
  1  'x, y, z'
loop_
 _atom_site_type_symbol
 _atom_site_label
 _atom_site_symmetry_multiplicity
 _atom_site_fract_x
 _atom_site_fract_y
 _atom_site_fract_z
 _atom_site_occupancy
  Pt  Pt0  1  0.58486378  0.53527676  0.08058514  1
  Pt  Pt1  1  0.41513622  0.46472324  0.08058514  1
  S  S2  1  0.63143295  0.55461698  0.58057786  1
  S  S3  1  0.36856705  0.44538302  0.58057786  1
