# generated using pymatgen
data_SrCoTe3
_symmetry_space_group_name_H-M   'P 1'
_cell_length_a   5.20072236
_cell_length_b   5.20072236
_cell_length_c   5.20072236
_cell_angle_alpha   90.00000000
_cell_angle_beta   90.00000000
_cell_angle_gamma   90.00000000
_symmetry_Int_Tables_number   1
_chemical_formula_structural   SrCoTe3
_chemical_formula_sum   'Sr1 Co1 Te3'
_cell_volume   140.66660598
_cell_formula_units_Z   1
loop_
 _symmetry_equiv_pos_site_id
 _symmetry_equiv_pos_as_xyz
  1  'x, y, z'
loop_
 _atom_site_type_symbol
 _atom_site_label
 _atom_site_symmetry_multiplicity
 _atom_site_fract_x
 _atom_site_fract_y
 _atom_site_fract_z
 _atom_site_occupancy
  Sr  Sr0  1  0.50000000  0.50000000  0.50000000  1
  Te  Te1  1  0.00000000  0.50000000  0.00000000  1
  Te  Te2  1  0.00000000  0.00000000  0.50000000  1
  Te  Te3  1  0.50000000  0.00000000  0.00000000  1
  Co  Co4  1  0.00000000  0.00000000  0.00000000  1
