# generated using pymatgen
data_KLaGeS2
_symmetry_space_group_name_H-M   'P 1'
_cell_length_a   5.08301601
_cell_length_b   5.08301601
_cell_length_c   5.11538358
_cell_angle_alpha   90.00000000
_cell_angle_beta   90.00000000
_cell_angle_gamma   90.00000000
_symmetry_Int_Tables_number   1
_chemical_formula_structural   KLaGeS2
_chemical_formula_sum   'K1 La1 Ge1 S2'
_cell_volume   132.16643032
_cell_formula_units_Z   1
loop_
 _symmetry_equiv_pos_site_id
 _symmetry_equiv_pos_as_xyz
  1  'x, y, z'
loop_
 _atom_site_type_symbol
 _atom_site_label
 _atom_site_symmetry_multiplicity
 _atom_site_fract_x
 _atom_site_fract_y
 _atom_site_fract_z
 _atom_site_occupancy
  S  S0  1  0.00000000  0.50000000  0.00000000  1
  S  S1  1  0.50000000  0.00000000  0.00000000  1
  Ge  Ge2  1  0.00000000  0.00000000  0.00000000  1
  K  K3  1  0.00000000  0.00000000  0.50000000  1
  La  La4  1  0.50000000  0.50000000  0.50000000  1
