# generated using pymatgen
data_InOs2Pd
_symmetry_space_group_name_H-M   'P 1'
_cell_length_a   7.47605868
_cell_length_b   7.47605868
_cell_length_c   5.87334225
_cell_angle_alpha   50.47313900
_cell_angle_beta   50.47313900
_cell_angle_gamma   90.00000000
_symmetry_Int_Tables_number   1
_chemical_formula_structural   InOs2Pd
_chemical_formula_sum   'In2 Os4 Pd2'
_cell_volume   143.04742940
_cell_formula_units_Z   2
loop_
 _symmetry_equiv_pos_site_id
 _symmetry_equiv_pos_as_xyz
  1  'x, y, z'
loop_
 _atom_site_type_symbol
 _atom_site_label
 _atom_site_symmetry_multiplicity
 _atom_site_fract_x
 _atom_site_fract_y
 _atom_site_fract_z
 _atom_site_occupancy
  Os  Os0  1  0.60793814  0.12500000  0.25000000  1
  Os  Os1  1  0.14206186  0.62500000  0.25000000  1
  Os  Os2  1  0.37500000  0.39206186  0.75000000  1
  Os  Os3  1  0.87500000  0.85793814  0.75000000  1
  Pd  Pd4  1  0.50000000  0.50000000  0.00000000  1
  Pd  Pd5  1  0.25000000  0.75000000  0.50000000  1
  In  In6  1  0.00000000  0.00000000  0.00000000  1
  In  In7  1  0.75000000  0.25000000  0.50000000  1
