# generated using pymatgen
data_Cr2IrPb
_symmetry_space_group_name_H-M   'P 1'
_cell_length_a   4.74568844
_cell_length_b   4.74568844
_cell_length_c   4.94264474
_cell_angle_alpha   78.65119889
_cell_angle_beta   78.65119892
_cell_angle_gamma   36.09540657
_symmetry_Int_Tables_number   1
_chemical_formula_structural   Cr2IrPb
_chemical_formula_sum   'Cr2 Ir1 Pb1'
_cell_volume   64.15990875
_cell_formula_units_Z   1
loop_
 _symmetry_equiv_pos_site_id
 _symmetry_equiv_pos_as_xyz
  1  'x, y, z'
loop_
 _atom_site_type_symbol
 _atom_site_label
 _atom_site_symmetry_multiplicity
 _atom_site_fract_x
 _atom_site_fract_y
 _atom_site_fract_z
 _atom_site_occupancy
  Cr  Cr0  1  0.98236008  0.98236008  0.04373576  1
  Cr  Cr1  1  0.25306978  0.25306978  0.25108870  1
  Ir  Ir2  1  0.51596644  0.51596644  0.44634939  1
  Pb  Pb3  1  0.74860371  0.74860371  0.75882615  1
