# generated using pymatgen
data_TbTmW2C3
_symmetry_space_group_name_H-M   'P 1'
_cell_length_a   6.11862138
_cell_length_b   6.11862138
_cell_length_c   5.69556468
_cell_angle_alpha   111.46572255
_cell_angle_beta   111.46572255
_cell_angle_gamma   31.41245484
_symmetry_Int_Tables_number   1
_chemical_formula_structural   TbTmW2C3
_chemical_formula_sum   'Tb1 Tm1 W2 C3'
_cell_volume   102.79052576
_cell_formula_units_Z   1
loop_
 _symmetry_equiv_pos_site_id
 _symmetry_equiv_pos_as_xyz
  1  'x, y, z'
loop_
 _atom_site_type_symbol
 _atom_site_label
 _atom_site_symmetry_multiplicity
 _atom_site_fract_x
 _atom_site_fract_y
 _atom_site_fract_z
 _atom_site_occupancy
  C  C0  1  0.99897799  0.99897799  0.00374715  1
  C  C1  1  0.75226732  0.75226732  0.26436611  1
  C  C2  1  0.25014824  0.25014824  0.73679232  1
  Tb  Tb3  1  0.60938840  0.60938840  0.81828438  1
  Tm  Tm4  1  0.38888468  0.38888468  0.17634785  1
  W  W5  1  0.15548870  0.15548870  0.32687564  1
  W  W6  1  0.84484302  0.84484302  0.67358613  1
