# generated using pymatgen
data_CaAlPd
_symmetry_space_group_name_H-M   'P 1'
_cell_length_a   5.62505501
_cell_length_b   5.72945966
_cell_length_c   7.87168387
_cell_angle_alpha   90.00000000
_cell_angle_beta   90.00000000
_cell_angle_gamma   90.00000000
_symmetry_Int_Tables_number   1
_chemical_formula_structural   CaAlPd
_chemical_formula_sum   'Ca4 Al4 Pd4'
_cell_volume   253.69276642
_cell_formula_units_Z   4
loop_
 _symmetry_equiv_pos_site_id
 _symmetry_equiv_pos_as_xyz
  1  'x, y, z'
loop_
 _atom_site_type_symbol
 _atom_site_label
 _atom_site_symmetry_multiplicity
 _atom_site_fract_x
 _atom_site_fract_y
 _atom_site_fract_z
 _atom_site_occupancy
  Ca  Ca0  1  0.25000000  0.36310624  0.59981704  1
  Ca  Ca1  1  0.75000000  0.63689376  0.40018296  1
  Ca  Ca2  1  0.75000000  0.36310624  0.90018296  1
  Ca  Ca3  1  0.25000000  0.63689376  0.09981704  1
  Al  Al4  1  0.00000000  0.10618396  0.25000000  1
  Al  Al5  1  0.50000000  0.10618396  0.25000000  1
  Al  Al6  1  0.50000000  0.89381604  0.75000000  1
  Al  Al7  1  0.00000000  0.89381604  0.75000000  1
  Pd  Pd8  1  0.25000000  0.12980344  0.97447939  1
  Pd  Pd9  1  0.25000000  0.87019656  0.47447939  1
  Pd  Pd10  1  0.75000000  0.12980344  0.52552061  1
  Pd  Pd11  1  0.75000000  0.87019656  0.02552061  1
