# generated using pymatgen
data_Mn2Tl
_symmetry_space_group_name_H-M   'P 1'
_cell_length_a   5.74444472
_cell_length_b   5.74444472
_cell_length_c   5.74444472
_cell_angle_alpha   126.70168153
_cell_angle_beta   126.70168153
_cell_angle_gamma   78.73790524
_symmetry_Int_Tables_number   1
_chemical_formula_structural   Mn2Tl
_chemical_formula_sum   'Mn4 Tl2'
_cell_volume   117.92410093
_cell_formula_units_Z   2
loop_
 _symmetry_equiv_pos_site_id
 _symmetry_equiv_pos_as_xyz
  1  'x, y, z'
loop_
 _atom_site_type_symbol
 _atom_site_label
 _atom_site_symmetry_multiplicity
 _atom_site_fract_x
 _atom_site_fract_y
 _atom_site_fract_z
 _atom_site_occupancy
  Mn  Mn0  1  0.17762921  0.67762921  0.85525842  1
  Mn  Mn1  1  0.82237079  0.32237079  0.14474158  1
  Mn  Mn2  1  0.67762921  0.82237079  0.50000000  1
  Mn  Mn3  1  0.32237079  0.17762921  0.50000000  1
  Tl  Tl4  1  0.75000000  0.75000000  0.00000000  1
  Tl  Tl5  1  0.25000000  0.25000000  0.00000000  1
