# generated using pymatgen
data_KCr2Cd
_symmetry_space_group_name_H-M   'P 1'
_cell_length_a   6.48734215
_cell_length_b   6.48734216
_cell_length_c   6.48734215
_cell_angle_alpha   151.25109557
_cell_angle_beta   127.28001770
_cell_angle_gamma   61.15465220
_symmetry_Int_Tables_number   1
_chemical_formula_structural   KCr2Cd
_chemical_formula_sum   'K1 Cr2 Cd1'
_cell_volume   103.64075973
_cell_formula_units_Z   1
loop_
 _symmetry_equiv_pos_site_id
 _symmetry_equiv_pos_as_xyz
  1  'x, y, z'
loop_
 _atom_site_type_symbol
 _atom_site_label
 _atom_site_symmetry_multiplicity
 _atom_site_fract_x
 _atom_site_fract_y
 _atom_site_fract_z
 _atom_site_occupancy
  Cd  Cd0  1  0.25000000  0.75000000  0.50000000  1
  Cr  Cr1  1  0.03390878  0.03390878  0.00000000  1
  Cr  Cr2  1  0.46609122  0.46609122  1.00000000  1
  K  K3  1  0.75000000  0.25000000  0.50000000  1
