# generated using pymatgen
data_ZnAg2
_symmetry_space_group_name_H-M   'P 1'
_cell_length_a   7.72795691
_cell_length_b   7.72795692
_cell_length_c   2.91045853
_cell_angle_alpha   90.00000000
_cell_angle_beta   90.00000000
_cell_angle_gamma   120.00000001
_symmetry_Int_Tables_number   1
_chemical_formula_structural   ZnAg2
_chemical_formula_sum   'Zn3 Ag6'
_cell_volume   150.52943495
_cell_formula_units_Z   3
loop_
 _symmetry_equiv_pos_site_id
 _symmetry_equiv_pos_as_xyz
  1  'x, y, z'
loop_
 _atom_site_type_symbol
 _atom_site_label
 _atom_site_symmetry_multiplicity
 _atom_site_fract_x
 _atom_site_fract_y
 _atom_site_fract_z
 _atom_site_occupancy
  Ag  Ag0  1  -0.00000000  0.30091425  0.00000000  1
  Ag  Ag1  1  -0.00000000  0.63446892  0.50000000  1
  Ag  Ag2  1  0.30091425  0.00000000  0.00000000  1
  Ag  Ag3  1  0.69908575  0.69908575  0.00000000  1
  Ag  Ag4  1  0.63446892  0.00000000  0.50000000  1
  Ag  Ag5  1  0.36553108  0.36553108  0.50000000  1
  Zn  Zn6  1  0.00000000  0.00000000  0.50000000  1
  Zn  Zn7  1  0.33333333  0.66666667  0.00000000  1
  Zn  Zn8  1  0.66666667  0.33333333  0.00000000  1
