# generated using pymatgen
data_Co4CuNi7
_symmetry_space_group_name_H-M   'P 1'
_cell_length_a   2.48883244
_cell_length_b   2.48883244
_cell_length_c   24.54329146
_cell_angle_alpha   90.00000000
_cell_angle_beta   90.00000000
_cell_angle_gamma   120.00000003
_symmetry_Int_Tables_number   1
_chemical_formula_structural   Co4CuNi7
_chemical_formula_sum   'Co4 Cu1 Ni7'
_cell_volume   131.66027395
_cell_formula_units_Z   1
loop_
 _symmetry_equiv_pos_site_id
 _symmetry_equiv_pos_as_xyz
  1  'x, y, z'
loop_
 _atom_site_type_symbol
 _atom_site_label
 _atom_site_symmetry_multiplicity
 _atom_site_fract_x
 _atom_site_fract_y
 _atom_site_fract_z
 _atom_site_occupancy
  Co  Co0  1  0.33333333  0.66666667  0.91680045  1
  Co  Co1  1  0.66666667  0.33333333  0.08319955  1
  Co  Co2  1  0.33333333  0.66666667  0.66791325  1
  Co  Co3  1  0.66666667  0.33333333  0.33208675  1
  Cu  Cu4  1  0.00000000  0.00000000  0.50000000  1
  Ni  Ni5  1  0.00000000  0.00000000  0.00000000  1
  Ni  Ni6  1  0.33333333  0.66666667  0.41424501  1
  Ni  Ni7  1  0.66666667  0.33333333  0.58575499  1
  Ni  Ni8  1  0.33333333  0.66666667  0.16566370  1
  Ni  Ni9  1  0.66666667  0.33333333  0.83433630  1
  Ni  Ni10  1  0.00000000  0.00000000  0.75036981  1
  Ni  Ni11  1  0.00000000  0.00000000  0.24963019  1
