# generated using pymatgen
data_LuBPt4
_symmetry_space_group_name_H-M   'P 1'
_cell_length_a   5.40573701
_cell_length_b   5.40573702
_cell_length_c   7.71805710
_cell_angle_alpha   90.00000000
_cell_angle_beta   90.00000000
_cell_angle_gamma   120.00000003
_symmetry_Int_Tables_number   1
_chemical_formula_structural   LuBPt4
_chemical_formula_sum   'Lu2 B2 Pt8'
_cell_volume   195.32077823
_cell_formula_units_Z   2
loop_
 _symmetry_equiv_pos_site_id
 _symmetry_equiv_pos_as_xyz
  1  'x, y, z'
loop_
 _atom_site_type_symbol
 _atom_site_label
 _atom_site_symmetry_multiplicity
 _atom_site_fract_x
 _atom_site_fract_y
 _atom_site_fract_z
 _atom_site_occupancy
  B  B0  1  0.33333333  0.66666667  0.50000000  1
  B  B1  1  0.66666667  0.33333333  0.50000000  1
  Lu  Lu2  1  0.00000000  0.00000000  0.50000000  1
  Lu  Lu3  1  0.00000000  0.00000000  0.00000000  1
  Pt  Pt4  1  0.66666667  0.33333333  0.00000000  1
  Pt  Pt5  1  0.33333333  0.66666667  0.00000000  1
  Pt  Pt6  1  0.50000000  0.50000000  0.69834718  1
  Pt  Pt7  1  0.50000000  0.00000000  0.69834718  1
  Pt  Pt8  1  0.00000000  0.50000000  0.69834718  1
  Pt  Pt9  1  0.50000000  0.50000000  0.30165282  1
  Pt  Pt10  1  0.50000000  0.00000000  0.30165282  1
  Pt  Pt11  1  0.00000000  0.50000000  0.30165282  1
