# generated using pymatgen
data_BaBe2W
_symmetry_space_group_name_H-M   'P 1'
_cell_length_a   3.83165672
_cell_length_b   3.83165671
_cell_length_c   6.61729159
_cell_angle_alpha   73.18893774
_cell_angle_beta   73.18893775
_cell_angle_gamma   60.03866796
_symmetry_Int_Tables_number   1
_chemical_formula_structural   BaBe2W
_chemical_formula_sum   'Ba1 Be2 W1'
_cell_volume   79.33491132
_cell_formula_units_Z   1
loop_
 _symmetry_equiv_pos_site_id
 _symmetry_equiv_pos_as_xyz
  1  'x, y, z'
loop_
 _atom_site_type_symbol
 _atom_site_label
 _atom_site_symmetry_multiplicity
 _atom_site_fract_x
 _atom_site_fract_y
 _atom_site_fract_z
 _atom_site_occupancy
  Be  Be0  1  0.06355076  0.06355076  0.81026588  1
  Be  Be1  1  0.73387782  0.73387782  0.79999487  1
  Ba  Ba2  1  0.25320241  0.25320241  0.23669604  1
  W  W3  1  0.44936900  0.44936900  0.65304321  1
