# generated using pymatgen
data_Pu3Pa8
_symmetry_space_group_name_H-M   'P 1'
_cell_length_a   6.37052925
_cell_length_b   6.37052925
_cell_length_c   6.37052925
_cell_angle_alpha   90.43273097
_cell_angle_beta   90.43273104
_cell_angle_gamma   90.43273099
_symmetry_Int_Tables_number   1
_chemical_formula_structural   Pu3Pa8
_chemical_formula_sum   'Pu3 Pa8'
_cell_volume   258.51705118
_cell_formula_units_Z   1
loop_
 _symmetry_equiv_pos_site_id
 _symmetry_equiv_pos_as_xyz
  1  'x, y, z'
loop_
 _atom_site_type_symbol
 _atom_site_label
 _atom_site_symmetry_multiplicity
 _atom_site_fract_x
 _atom_site_fract_y
 _atom_site_fract_z
 _atom_site_occupancy
  Pu  Pu0  1  0.50000000  0.00000000  0.50000000  1
  Pu  Pu1  1  -0.00000000  0.50000000  0.50000000  1
  Pu  Pu2  1  0.50000000  0.50000000  0.00000000  1
  Pa  Pa3  1  0.84391966  0.36398369  0.15158970  1
  Pa  Pa4  1  0.36398369  0.15158970  0.84391966  1
  Pa  Pa5  1  0.15158970  0.84391966  0.36398369  1
  Pa  Pa6  1  0.35121731  0.35121731  0.35121731  1
  Pa  Pa7  1  0.64878269  0.64878269  0.64878269  1
  Pa  Pa8  1  0.84841030  0.15608034  0.63601631  1
  Pa  Pa9  1  0.63601631  0.84841030  0.15608034  1
  Pa  Pa10  1  0.15608034  0.63601631  0.84841030  1
