# generated using pymatgen
data_Mn4NbCr
_symmetry_space_group_name_H-M   'P 1'
_cell_length_a   3.98031856
_cell_length_b   6.47851851
_cell_length_c   5.88320142
_cell_angle_alpha   90.00000000
_cell_angle_beta   90.00000000
_cell_angle_gamma   90.00000000
_symmetry_Int_Tables_number   1
_chemical_formula_structural   Mn4NbCr
_chemical_formula_sum   'Mn8 Nb2 Cr2'
_cell_volume   151.70757034
_cell_formula_units_Z   2
loop_
 _symmetry_equiv_pos_site_id
 _symmetry_equiv_pos_as_xyz
  1  'x, y, z'
loop_
 _atom_site_type_symbol
 _atom_site_label
 _atom_site_symmetry_multiplicity
 _atom_site_fract_x
 _atom_site_fract_y
 _atom_site_fract_z
 _atom_site_occupancy
  Mn  Mn0  1  0.00000000  0.00000000  0.50000000  1
  Mn  Mn1  1  0.00000000  0.00000000  0.00000000  1
  Mn  Mn2  1  0.50000000  0.95661468  0.75000000  1
  Mn  Mn3  1  0.50000000  0.04338532  0.25000000  1
  Mn  Mn4  1  0.50000000  0.67447608  0.03562638  1
  Mn  Mn5  1  0.50000000  0.32552392  0.96437362  1
  Mn  Mn6  1  0.50000000  0.67447608  0.46437362  1
  Mn  Mn7  1  0.50000000  0.32552392  0.53562638  1
  Nb  Nb8  1  0.00000000  0.63438396  0.75000000  1
  Nb  Nb9  1  0.00000000  0.36561604  0.25000000  1
  Cr  Cr10  1  0.00000000  0.25339073  0.75000000  1
  Cr  Cr11  1  0.00000000  0.74660927  0.25000000  1
