# generated using pymatgen
data_HfCuSn
_symmetry_space_group_name_H-M   'P 1'
_cell_length_a   7.92201577
_cell_length_b   7.92201577
_cell_length_c   3.24025827
_cell_angle_alpha   90.00000000
_cell_angle_beta   90.00000000
_cell_angle_gamma   120.00000000
_symmetry_Int_Tables_number   1
_chemical_formula_structural   HfCuSn
_chemical_formula_sum   'Hf3 Cu3 Sn3'
_cell_volume   176.10904602
_cell_formula_units_Z   3
loop_
 _symmetry_equiv_pos_site_id
 _symmetry_equiv_pos_as_xyz
  1  'x, y, z'
loop_
 _atom_site_type_symbol
 _atom_site_label
 _atom_site_symmetry_multiplicity
 _atom_site_fract_x
 _atom_site_fract_y
 _atom_site_fract_z
 _atom_site_occupancy
  Cu  Cu0  1  0.62637972  0.00000000  0.50000027  1
  Cu  Cu1  1  0.37362033  0.37362111  0.50000027  1
  Cu  Cu2  1  -0.00000000  0.62637934  0.50000027  1
  Hf  Hf3  1  0.29724253  0.00000000  0.00000000  1
  Hf  Hf4  1  0.00000000  0.29724224  0.00000000  1
  Hf  Hf5  1  0.70275811  0.70275821  0.00000000  1
  Sn  Sn6  1  0.66666701  0.33333348  0.00000000  1
  Sn  Sn7  1  0.33333348  0.66666697  0.00000000  1
  Sn  Sn8  1  0.00000000  0.00000000  0.50000027  1
