# generated using pymatgen
data_AcSbTe4
_symmetry_space_group_name_H-M   'P 1'
_cell_length_a   6.97984061
_cell_length_b   8.83921057
_cell_length_c   10.79412732
_cell_angle_alpha   90.00000000
_cell_angle_beta   90.00000000
_cell_angle_gamma   129.93981764
_symmetry_Int_Tables_number   1
_chemical_formula_structural   AcSbTe4
_chemical_formula_sum   'Ac2 Sb2 Te8'
_cell_volume   510.60240489
_cell_formula_units_Z   2
loop_
 _symmetry_equiv_pos_site_id
 _symmetry_equiv_pos_as_xyz
  1  'x, y, z'
loop_
 _atom_site_type_symbol
 _atom_site_label
 _atom_site_symmetry_multiplicity
 _atom_site_fract_x
 _atom_site_fract_y
 _atom_site_fract_z
 _atom_site_occupancy
  Ac  Ac0  1  0.93170185  0.62120227  0.75000000  1
  Ac  Ac1  1  0.06829815  0.37879773  0.25000000  1
  Sb  Sb2  1  0.90615836  0.08074416  0.75000000  1
  Sb  Sb3  1  0.09384164  0.91925584  0.25000000  1
  Te  Te4  1  0.50162622  0.67892605  0.75000000  1
  Te  Te5  1  0.49837378  0.32107395  0.25000000  1
  Te  Te6  1  0.33216906  0.12267428  0.75000000  1
  Te  Te7  1  0.66783094  0.87732572  0.25000000  1
  Te  Te8  1  0.11512621  0.69915056  0.05424845  1
  Te  Te9  1  0.88487379  0.30084944  0.55424845  1
  Te  Te10  1  0.11512621  0.69915056  0.44575155  1
  Te  Te11  1  0.88487379  0.30084944  0.94575155  1
