# generated using pymatgen
data_POsRuN
_symmetry_space_group_name_H-M   'P 1'
_cell_length_a   2.99126081
_cell_length_b   2.99126081
_cell_length_c   19.75959906
_cell_angle_alpha   90.00000000
_cell_angle_beta   90.00000000
_cell_angle_gamma   120.00000009
_symmetry_Int_Tables_number   1
_chemical_formula_structural   POsRuN
_chemical_formula_sum   'P3 Os3 Ru3 N3'
_cell_volume   153.11485305
_cell_formula_units_Z   3
loop_
 _symmetry_equiv_pos_site_id
 _symmetry_equiv_pos_as_xyz
  1  'x, y, z'
loop_
 _atom_site_type_symbol
 _atom_site_label
 _atom_site_symmetry_multiplicity
 _atom_site_fract_x
 _atom_site_fract_y
 _atom_site_fract_z
 _atom_site_occupancy
  P  P0  1  0.00000000  0.00000000  0.65365885  1
  P  P1  1  0.33333300  0.66666700  0.32032585  1
  P  P2  1  0.66666700  0.33333300  0.98699185  1
  Os  Os3  1  0.00000000  0.00000000  0.24616838  1
  Os  Os4  1  0.33333300  0.66666700  0.91283538  1
  Os  Os5  1  0.66666700  0.33333300  0.57950138  1
  Ru  Ru6  1  0.00000000  0.00000000  0.46204082  1
  Ru  Ru7  1  0.33333300  0.66666700  0.12870782  1
  Ru  Ru8  1  0.66666700  0.33333300  0.79537382  1
  N  N9  1  0.00000000  0.00000000  0.73828196  1
  N  N10  1  0.33333300  0.66666700  0.40494896  1
  N  N11  1  0.66666700  0.33333300  0.07161496  1
