# generated using pymatgen
data_CdSiNi2S
_symmetry_space_group_name_H-M   'P 1'
_cell_length_a   4.24102714
_cell_length_b   5.22265142
_cell_length_c   4.24102714
_cell_angle_alpha   90.00000000
_cell_angle_beta   90.00000000
_cell_angle_gamma   90.00000000
_symmetry_Int_Tables_number   1
_chemical_formula_structural   CdSiNi2S
_chemical_formula_sum   'Cd1 Si1 Ni2 S1'
_cell_volume   93.93623374
_cell_formula_units_Z   1
loop_
 _symmetry_equiv_pos_site_id
 _symmetry_equiv_pos_as_xyz
  1  'x, y, z'
loop_
 _atom_site_type_symbol
 _atom_site_label
 _atom_site_symmetry_multiplicity
 _atom_site_fract_x
 _atom_site_fract_y
 _atom_site_fract_z
 _atom_site_occupancy
  Ni  Ni0  1  0.00000000  0.00000000  0.50000000  1
  Ni  Ni1  1  0.50000000  0.00000000  0.00000000  1
  S  S2  1  0.50000000  0.50000000  0.50000000  1
  Si  Si3  1  0.00000000  0.00000000  0.00000000  1
  Cd  Cd4  1  0.00000000  0.50000000  0.00000000  1
