# generated using pymatgen
data_MgCoSeO
_symmetry_space_group_name_H-M   'P 1'
_cell_length_a   3.59753243
_cell_length_b   3.59658535
_cell_length_c   11.56062000
_cell_angle_alpha   90.00000000
_cell_angle_beta   90.00000000
_cell_angle_gamma   120.06465936
_symmetry_Int_Tables_number   1
_chemical_formula_structural   MgCoSeO
_chemical_formula_sum   'Mg2 Co2 Se2 O2'
_cell_volume   129.45639589
_cell_formula_units_Z   2
loop_
 _symmetry_equiv_pos_site_id
 _symmetry_equiv_pos_as_xyz
  1  'x, y, z'
loop_
 _atom_site_type_symbol
 _atom_site_label
 _atom_site_symmetry_multiplicity
 _atom_site_fract_x
 _atom_site_fract_y
 _atom_site_fract_z
 _atom_site_occupancy
  Co  Co0  1  0.33346114  0.66635327  0.26377046  1
  Co  Co1  1  0.66653811  0.33364801  0.76377046  1
  Mg  Mg2  1  -0.00000000  0.99987089  0.48868400  1
  Mg  Mg3  1  -0.00000000  0.00012847  0.98868400  1
  O  O4  1  0.99978099  0.00031334  0.32438053  1
  O  O5  1  0.00021665  0.99968473  0.82438053  1
  Se  Se6  1  0.66673697  0.33321775  0.11085392  1
  Se  Se7  1  0.33326346  0.66678032  0.61085392  1
