# generated using pymatgen
data_Mg16Al12Ir
_symmetry_space_group_name_H-M   'P 1'
_cell_length_a   8.99513512
_cell_length_b   8.99513573
_cell_length_c   9.02182640
_cell_angle_alpha   109.34122619
_cell_angle_beta   109.34122432
_cell_angle_gamma   108.94633346
_symmetry_Int_Tables_number   1
_chemical_formula_structural   Mg16Al12Ir
_chemical_formula_sum   'Mg16 Al12 Ir1'
_cell_volume   567.30859894
_cell_formula_units_Z   1
loop_
 _symmetry_equiv_pos_site_id
 _symmetry_equiv_pos_as_xyz
  1  'x, y, z'
loop_
 _atom_site_type_symbol
 _atom_site_label
 _atom_site_symmetry_multiplicity
 _atom_site_fract_x
 _atom_site_fract_y
 _atom_site_fract_z
 _atom_site_occupancy
  Mg  Mg0  1  0.38449688  0.38449688  0.33138311  1
  Mg  Mg1  1  0.00178471  0.00178471  0.00313512  1
  Mg  Mg2  1  0.98620300  0.98620300  0.64270733  1
  Mg  Mg3  1  0.30623185  0.30623185  0.70233573  1
  Mg  Mg4  1  0.66436103  0.42177549  0.01967641  1
  Mg  Mg5  1  0.59455947  0.28812587  0.60004740  1
  Mg  Mg6  1  0.99969707  0.68148670  0.40084065  1
  Mg  Mg7  1  0.99488310  0.64474087  0.00334740  1
  Mg  Mg8  1  0.70065035  0.32451121  0.30898980  1
  Mg  Mg9  1  0.39818598  0.99471153  0.67770106  1
  Mg  Mg10  1  0.99471153  0.39818598  0.67770106  1
  Mg  Mg11  1  0.32451121  0.70065035  0.30898980  1
  Mg  Mg12  1  0.64474087  0.99488310  0.00334740  1
  Mg  Mg13  1  0.68148670  0.99969707  0.40084065  1
  Mg  Mg14  1  0.28812587  0.59455947  0.60004740  1
  Mg  Mg15  1  0.42177549  0.66436103  0.01967641  1
  Al  Al16  1  0.81628555  0.81628555  0.19750622  1
  Al  Al17  1  0.64103616  0.64103616  0.83008935  1
  Al  Al18  1  0.34603760  0.16331924  0.97722562  1
  Al  Al19  1  0.81599748  0.63276465  0.63012135  1
  Al  Al20  1  0.18800487  0.99972973  0.36056484  1
  Al  Al21  1  0.36609330  0.99272657  0.17767075  1
  Al  Al22  1  0.17945176  0.79833018  0.81290190  1
  Al  Al23  1  0.79833018  0.17945176  0.81290190  1
  Al  Al24  1  0.99272657  0.36609330  0.17767075  1
  Al  Al25  1  0.99972973  0.18800487  0.36056484  1
  Al  Al26  1  0.63276465  0.81599748  0.63012135  1
  Al  Al27  1  0.16331924  0.34603760  0.97722562  1
  Ir  Ir28  1  0.67382279  0.67382279  0.35467177  1
