# generated using pymatgen
data_CaTbCd3
_symmetry_space_group_name_H-M   'P 1'
_cell_length_a   3.59765111
_cell_length_b   4.97222612
_cell_length_c   14.97854715
_cell_angle_alpha   90.00000000
_cell_angle_beta   96.89749314
_cell_angle_gamma   90.00000000
_symmetry_Int_Tables_number   1
_chemical_formula_structural   CaTbCd3
_chemical_formula_sum   'Ca2 Tb2 Cd6'
_cell_volume   266.00206760
_cell_formula_units_Z   2
loop_
 _symmetry_equiv_pos_site_id
 _symmetry_equiv_pos_as_xyz
  1  'x, y, z'
loop_
 _atom_site_type_symbol
 _atom_site_label
 _atom_site_symmetry_multiplicity
 _atom_site_fract_x
 _atom_site_fract_y
 _atom_site_fract_z
 _atom_site_occupancy
  Ca  Ca0  1  0.92518304  0.75000000  0.85036507  1
  Ca  Ca1  1  0.07481696  0.25000000  0.14963493  1
  Tb  Tb2  1  0.21423996  0.75000000  0.42847892  1
  Tb  Tb3  1  0.78576004  0.25000000  0.57152108  1
  Cd  Cd4  1  0.62208476  0.75000000  0.24416852  1
  Cd  Cd5  1  0.37791524  0.25000000  0.75583148  1
  Cd  Cd6  1  0.52474686  0.75000000  0.04949372  1
  Cd  Cd7  1  0.47525314  0.25000000  0.95050628  1
  Cd  Cd8  1  0.67632017  0.25000000  0.35263935  1
  Cd  Cd9  1  0.32367983  0.75000000  0.64736065  1
