# generated using pymatgen
data_TaAgIr2
_symmetry_space_group_name_H-M   'P 1'
_cell_length_a   7.20017715
_cell_length_b   7.20017715
_cell_length_c   5.80355260
_cell_angle_alpha   51.66013080
_cell_angle_beta   51.66013080
_cell_angle_gamma   90.00000000
_symmetry_Int_Tables_number   1
_chemical_formula_structural   TaAgIr2
_chemical_formula_sum   'Ta2 Ag2 Ir4'
_cell_volume   144.41614519
_cell_formula_units_Z   2
loop_
 _symmetry_equiv_pos_site_id
 _symmetry_equiv_pos_as_xyz
  1  'x, y, z'
loop_
 _atom_site_type_symbol
 _atom_site_label
 _atom_site_symmetry_multiplicity
 _atom_site_fract_x
 _atom_site_fract_y
 _atom_site_fract_z
 _atom_site_occupancy
  Ir  Ir0  1  0.65633920  0.12500000  0.25000000  1
  Ir  Ir1  1  0.09366080  0.62500000  0.25000000  1
  Ir  Ir2  1  0.37500000  0.34366080  0.75000000  1
  Ir  Ir3  1  0.87500000  0.90633920  0.75000000  1
  Ag  Ag4  1  0.50000000  0.50000000  0.00000000  1
  Ag  Ag5  1  0.25000000  0.75000000  0.50000000  1
  Ta  Ta6  1  0.00000000  0.00000000  0.00000000  1
  Ta  Ta7  1  0.75000000  0.25000000  0.50000000  1
