# generated using pymatgen
data_Y(ZnNi2)4
_symmetry_space_group_name_H-M   'P 1'
_cell_length_a   4.89803332
_cell_length_b   6.37058294
_cell_length_c   6.37058294
_cell_angle_alpha   81.50151720
_cell_angle_beta   67.39190004
_cell_angle_gamma   67.39190004
_symmetry_Int_Tables_number   1
_chemical_formula_structural   Y(ZnNi2)4
_chemical_formula_sum   'Y1 Zn4 Ni8'
_cell_volume   169.40653680
_cell_formula_units_Z   1
loop_
 _symmetry_equiv_pos_site_id
 _symmetry_equiv_pos_as_xyz
  1  'x, y, z'
loop_
 _atom_site_type_symbol
 _atom_site_label
 _atom_site_symmetry_multiplicity
 _atom_site_fract_x
 _atom_site_fract_y
 _atom_site_fract_z
 _atom_site_occupancy
  Y  Y0  1  0.00000000  0.00000000  0.00000000  1
  Zn  Zn1  1  -0.00000000  0.00000000  0.50000000  1
  Zn  Zn2  1  0.50000000  0.00000000  0.50000000  1
  Zn  Zn3  1  0.00000000  0.50000000  0.00000000  1
  Zn  Zn4  1  0.50000000  0.50000000  0.00000000  1
  Ni  Ni5  1  1.00000000  0.35681769  0.64318231  1
  Ni  Ni6  1  0.00000000  0.64318231  0.35681769  1
  Ni  Ni7  1  0.35681769  0.64318231  0.64318231  1
  Ni  Ni8  1  0.64318231  0.35681769  0.35681769  1
  Ni  Ni9  1  0.50000000  0.77460312  0.22539688  1
  Ni  Ni10  1  0.50000000  0.22539688  0.77460312  1
  Ni  Ni11  1  0.27460312  0.22539688  0.22539688  1
  Ni  Ni12  1  0.72539688  0.77460312  0.77460312  1
