# generated using pymatgen
data_HoCdPd
_symmetry_space_group_name_H-M   'P 1'
_cell_length_a   7.22930924
_cell_length_b   4.06768148
_cell_length_c   8.81447749
_cell_angle_alpha   90.00000000
_cell_angle_beta   90.00000000
_cell_angle_gamma   90.00000000
_symmetry_Int_Tables_number   1
_chemical_formula_structural   HoCdPd
_chemical_formula_sum   'Ho4 Cd4 Pd4'
_cell_volume   259.20317266
_cell_formula_units_Z   4
loop_
 _symmetry_equiv_pos_site_id
 _symmetry_equiv_pos_as_xyz
  1  'x, y, z'
loop_
 _atom_site_type_symbol
 _atom_site_label
 _atom_site_symmetry_multiplicity
 _atom_site_fract_x
 _atom_site_fract_y
 _atom_site_fract_z
 _atom_site_occupancy
  Cd  Cd0  1  0.86690717  0.74999973  0.06139672  1
  Cd  Cd1  1  0.36690642  0.74999973  0.43860342  1
  Cd  Cd2  1  0.63309368  0.24999991  0.56139686  1
  Cd  Cd3  1  0.13309294  0.24999991  0.93860357  1
  Ho  Ho4  1  0.55556899  0.24999991  0.18567975  1
  Ho  Ho5  1  0.05556824  0.24999991  0.31432039  1
  Ho  Ho6  1  0.94443186  0.74999973  0.68567990  1
  Ho  Ho7  1  0.44443112  0.74999973  0.81432053  1
  Pd  Pd8  1  0.27159580  0.74999973  0.13053298  1
  Pd  Pd9  1  0.77159516  0.74999973  0.36946716  1
  Pd  Pd10  1  0.22840495  0.24999991  0.63053312  1
  Pd  Pd11  1  0.72840431  0.24999991  0.86946731  1
