# generated using pymatgen
data_LaDy5In4
_symmetry_space_group_name_H-M   'P 1'
_cell_length_a   3.55647664
_cell_length_b   3.55647664
_cell_length_c   22.16075688
_cell_angle_alpha   90.00000000
_cell_angle_beta   90.00000000
_cell_angle_gamma   90.00000000
_symmetry_Int_Tables_number   1
_chemical_formula_structural   LaDy5In4
_chemical_formula_sum   'La1 Dy5 In4'
_cell_volume   280.30091159
_cell_formula_units_Z   1
loop_
 _symmetry_equiv_pos_site_id
 _symmetry_equiv_pos_as_xyz
  1  'x, y, z'
loop_
 _atom_site_type_symbol
 _atom_site_label
 _atom_site_symmetry_multiplicity
 _atom_site_fract_x
 _atom_site_fract_y
 _atom_site_fract_z
 _atom_site_occupancy
  La  La0  1  0.00000000  0.00000000  0.00000000  1
  Dy  Dy1  1  0.50000000  0.50000000  0.12094162  1
  Dy  Dy2  1  0.50000000  0.50000000  0.30992496  1
  Dy  Dy3  1  0.50000000  0.50000000  0.50000000  1
  Dy  Dy4  1  0.50000000  0.50000000  0.69007504  1
  Dy  Dy5  1  0.50000000  0.50000000  0.87905838  1
  In  In6  1  0.00000000  0.00000000  0.21421232  1
  In  In7  1  0.00000000  0.00000000  0.40483195  1
  In  In8  1  0.00000000  0.00000000  0.59516805  1
  In  In9  1  0.00000000  0.00000000  0.78578768  1
