# generated using pymatgen
data_Re(IF)2
_symmetry_space_group_name_H-M   'P 1'
_cell_length_a   13.60812530
_cell_length_b   6.62709722
_cell_length_c   15.05242473
_cell_angle_alpha   90.00000000
_cell_angle_beta   90.00000000
_cell_angle_gamma   90.00003265
_symmetry_Int_Tables_number   1
_chemical_formula_structural   Re(IF)2
_chemical_formula_sum   'Re2 I4 F4'
_cell_volume   1357.46332654
_cell_formula_units_Z   2
loop_
 _symmetry_equiv_pos_site_id
 _symmetry_equiv_pos_as_xyz
  1  'x, y, z'
loop_
 _atom_site_type_symbol
 _atom_site_label
 _atom_site_symmetry_multiplicity
 _atom_site_fract_x
 _atom_site_fract_y
 _atom_site_fract_z
 _atom_site_occupancy
  Re  Re0  1  0.99999905  0.99646490  0.50003118  1
  Re  Re1  1  0.49999902  0.49646491  0.50003118  1
  I  I2  1  0.85529521  0.25027561  0.49825175  1
  I  I3  1  0.14470361  0.25027442  0.49825095  1
  I  I4  1  0.35529498  0.75027522  0.49825090  1
  I  I5  1  0.64470338  0.75027481  0.49825173  1
  F  F6  1  0.40752549  0.27607912  0.50173371  1
  F  F7  1  0.59247238  0.27607874  0.50173246  1
  F  F8  1  0.90752532  0.77607930  0.50173249  1
  F  F9  1  0.09247218  0.77607853  0.50173363  1
