# generated using pymatgen
data_LiSmTlCl5
_symmetry_space_group_name_H-M   'P 1'
_cell_length_a   7.57476760
_cell_length_b   7.57476759
_cell_length_c   10.15849981
_cell_angle_alpha   103.73244654
_cell_angle_beta   103.73244657
_cell_angle_gamma   107.32187535
_symmetry_Int_Tables_number   1
_chemical_formula_structural   LiSmTlCl5
_chemical_formula_sum   'Li2 Sm2 Tl2 Cl10'
_cell_volume   509.82815846
_cell_formula_units_Z   2
loop_
 _symmetry_equiv_pos_site_id
 _symmetry_equiv_pos_as_xyz
  1  'x, y, z'
loop_
 _atom_site_type_symbol
 _atom_site_label
 _atom_site_symmetry_multiplicity
 _atom_site_fract_x
 _atom_site_fract_y
 _atom_site_fract_z
 _atom_site_occupancy
  Li  Li0  1  0.69037968  0.30962032  0.25000000  1
  Li  Li1  1  0.30962032  0.69037968  0.75000000  1
  Sm  Sm2  1  -0.00000000  -0.00000000  0.50000000  1
  Sm  Sm3  1  0.00000000  0.00000000  0.00000000  1
  Tl  Tl4  1  0.35395384  0.64604616  0.25000000  1
  Tl  Tl5  1  0.64604616  0.35395384  0.75000000  1
  Cl  Cl6  1  0.08264469  0.91735531  0.25000000  1
  Cl  Cl7  1  0.91735531  0.08264469  0.75000000  1
  Cl  Cl8  1  0.91287186  0.30996546  0.11689268  1
  Cl  Cl9  1  0.08712814  0.69003454  0.88310732  1
  Cl  Cl10  1  0.69003454  0.08712814  0.38310732  1
  Cl  Cl11  1  0.30996546  0.91287186  0.61689268  1
  Cl  Cl12  1  0.75448688  0.62254878  0.42387792  1
  Cl  Cl13  1  0.24551312  0.37745122  0.57612208  1
  Cl  Cl14  1  0.37745122  0.24551312  0.07612208  1
  Cl  Cl15  1  0.62254878  0.75448688  0.92387792  1
