# generated using pymatgen
data_TbMgPO
_symmetry_space_group_name_H-M   'P 1'
_cell_length_a   3.74006714
_cell_length_b   6.10722880
_cell_length_c   6.54574534
_cell_angle_alpha   90.00000000
_cell_angle_beta   90.00000000
_cell_angle_gamma   90.00000000
_symmetry_Int_Tables_number   1
_chemical_formula_structural   TbMgPO
_chemical_formula_sum   'Tb2 Mg2 P2 O2'
_cell_volume   149.51428707
_cell_formula_units_Z   2
loop_
 _symmetry_equiv_pos_site_id
 _symmetry_equiv_pos_as_xyz
  1  'x, y, z'
loop_
 _atom_site_type_symbol
 _atom_site_label
 _atom_site_symmetry_multiplicity
 _atom_site_fract_x
 _atom_site_fract_y
 _atom_site_fract_z
 _atom_site_occupancy
  Mg  Mg0  1  0.00000000  0.11877073  0.44513189  1
  Mg  Mg1  1  0.00000000  0.88122947  0.94513301  1
  O  O2  1  0.49999904  0.24406814  0.37932579  1
  O  O3  1  0.49999904  0.75593205  0.87932538  1
  P  P4  1  0.00000000  0.72189861  0.32694978  1
  P  P5  1  0.00000000  0.27810158  0.82694937  1
  Tb  Tb6  1  0.49999904  0.45673907  0.10258725  1
  Tb  Tb7  1  0.49999904  0.54326113  0.60258684  1
