# generated using pymatgen
data_CoSi3
_symmetry_space_group_name_H-M   'P 1'
_cell_length_a   6.22725600
_cell_length_b   6.22725600
_cell_length_c   3.67363044
_cell_angle_alpha   90.00000000
_cell_angle_beta   90.00000000
_cell_angle_gamma   128.78295904
_symmetry_Int_Tables_number   1
_chemical_formula_structural   CoSi3
_chemical_formula_sum   'Co2 Si6'
_cell_volume   111.04999915
_cell_formula_units_Z   2
loop_
 _symmetry_equiv_pos_site_id
 _symmetry_equiv_pos_as_xyz
  1  'x, y, z'
loop_
 _atom_site_type_symbol
 _atom_site_label
 _atom_site_symmetry_multiplicity
 _atom_site_fract_x
 _atom_site_fract_y
 _atom_site_fract_z
 _atom_site_occupancy
  Co  Co0  1  0.58528828  0.41471172  0.25000000  1
  Co  Co1  1  0.41471172  0.58528828  0.75000000  1
  Si  Si2  1  0.25163773  0.74836227  0.25000000  1
  Si  Si3  1  0.74836227  0.25163773  0.75000000  1
  Si  Si4  1  0.13785139  0.29939152  0.25000000  1
  Si  Si5  1  0.86214861  0.70060848  0.75000000  1
  Si  Si6  1  0.29939152  0.13785139  0.75000000  1
  Si  Si7  1  0.70060848  0.86214861  0.25000000  1
