# generated using pymatgen
data_Cr2Co(IrRh)2
_symmetry_space_group_name_H-M   'P 1'
_cell_length_a   3.74605208
_cell_length_b   4.62353106
_cell_length_c   5.91362538
_cell_angle_alpha   82.16745077
_cell_angle_beta   90.00000000
_cell_angle_gamma   113.89784935
_symmetry_Int_Tables_number   1
_chemical_formula_structural   Cr2Co(IrRh)2
_chemical_formula_sum   'Cr2 Co1 Ir2 Rh2'
_cell_volume   92.59690687
_cell_formula_units_Z   1
loop_
 _symmetry_equiv_pos_site_id
 _symmetry_equiv_pos_as_xyz
  1  'x, y, z'
loop_
 _atom_site_type_symbol
 _atom_site_label
 _atom_site_symmetry_multiplicity
 _atom_site_fract_x
 _atom_site_fract_y
 _atom_site_fract_z
 _atom_site_occupancy
  Cr  Cr0  1  0.70510508  0.41020916  0.34790946  1
  Cr  Cr1  1  0.29489492  0.58979084  0.65209054  1
  Co  Co2  1  0.00000000  0.00000000  0.50000000  1
  Ir  Ir3  1  0.85799880  0.71599859  0.91956301  1
  Ir  Ir4  1  0.14200120  0.28400141  0.08043699  1
  Rh  Rh5  1  0.58045916  0.16091932  0.75585322  1
  Rh  Rh6  1  0.41954084  0.83908068  0.24414678  1
