# generated using pymatgen
data_NdY2Tm9
_symmetry_space_group_name_H-M   'P 1'
_cell_length_a   4.97771333
_cell_length_b   4.97771333
_cell_length_c   14.92198620
_cell_angle_alpha   90.00000000
_cell_angle_beta   90.00000000
_cell_angle_gamma   90.00000000
_symmetry_Int_Tables_number   1
_chemical_formula_structural   NdY2Tm9
_chemical_formula_sum   'Nd1 Y2 Tm9'
_cell_volume   369.73145286
_cell_formula_units_Z   1
loop_
 _symmetry_equiv_pos_site_id
 _symmetry_equiv_pos_as_xyz
  1  'x, y, z'
loop_
 _atom_site_type_symbol
 _atom_site_label
 _atom_site_symmetry_multiplicity
 _atom_site_fract_x
 _atom_site_fract_y
 _atom_site_fract_z
 _atom_site_occupancy
  Nd  Nd0  1  0.00000000  0.00000000  0.00000000  1
  Y  Y1  1  0.00000000  0.00000000  0.33369101  1
  Y  Y2  1  0.00000000  0.00000000  0.66630899  1
  Tm  Tm3  1  0.50000000  0.50000000  0.00000000  1
  Tm  Tm4  1  0.50000000  0.50000000  0.33444991  1
  Tm  Tm5  1  0.50000000  0.50000000  0.66555009  1
  Tm  Tm6  1  0.50000000  0.00000000  0.16782704  1
  Tm  Tm7  1  0.50000000  0.00000000  0.50000000  1
  Tm  Tm8  1  0.50000000  0.00000000  0.83217296  1
  Tm  Tm9  1  0.00000000  0.50000000  0.16782704  1
  Tm  Tm10  1  0.00000000  0.50000000  0.50000000  1
  Tm  Tm11  1  0.00000000  0.50000000  0.83217296  1
