# generated using pymatgen
data_PrTm(ScS2)2
_symmetry_space_group_name_H-M   'P 1'
_cell_length_a   3.79058503
_cell_length_b   6.68573042
_cell_length_c   6.67191044
_cell_angle_alpha   71.14215059
_cell_angle_beta   89.99972677
_cell_angle_gamma   89.99969081
_symmetry_Int_Tables_number   1
_chemical_formula_structural   PrTm(ScS2)2
_chemical_formula_sum   'Pr1 Tm1 Sc2 S4'
_cell_volume   160.00917648
_cell_formula_units_Z   1
loop_
 _symmetry_equiv_pos_site_id
 _symmetry_equiv_pos_as_xyz
  1  'x, y, z'
loop_
 _atom_site_type_symbol
 _atom_site_label
 _atom_site_symmetry_multiplicity
 _atom_site_fract_x
 _atom_site_fract_y
 _atom_site_fract_z
 _atom_site_occupancy
  Pr  Pr0  1  0.49999900  0.50000150  0.99999950  1
  Tm  Tm1  1  0.00000050  0.49999400  0.50000450  1
  Sc  Sc2  1  -0.00000000  0.00000100  0.99999900  1
  Sc  Sc3  1  0.50000000  0.00000100  0.49999900  1
  S  S4  1  0.00000300  0.77562236  0.73028805  1
  S  S5  1  0.99999600  0.22437914  0.26971045  1
  S  S6  1  0.50000200  0.76723464  0.25512691  1
  S  S7  1  0.49999700  0.23276636  0.74487209  1
