# generated using pymatgen
data_Mg3AlTe4
_symmetry_space_group_name_H-M   'P 1'
_cell_length_a   6.55559239
_cell_length_b   6.55559239
_cell_length_c   7.98255748
_cell_angle_alpha   114.27662143
_cell_angle_beta   114.27662143
_cell_angle_gamma   89.98799291
_symmetry_Int_Tables_number   1
_chemical_formula_structural   Mg3AlTe4
_chemical_formula_sum   'Mg3 Al1 Te4'
_cell_volume   279.12141578
_cell_formula_units_Z   1
loop_
 _symmetry_equiv_pos_site_id
 _symmetry_equiv_pos_as_xyz
  1  'x, y, z'
loop_
 _atom_site_type_symbol
 _atom_site_label
 _atom_site_symmetry_multiplicity
 _atom_site_fract_x
 _atom_site_fract_y
 _atom_site_fract_z
 _atom_site_occupancy
  Mg  Mg0  1  0.50000215  0.50000215  0.00005182  1
  Mg  Mg1  1  0.74987150  0.24996778  0.50000911  1
  Mg  Mg2  1  0.24996778  0.74987150  0.50000911  1
  Al  Al3  1  0.99989196  0.99989196  0.00003696  1
  Te  Te4  1  0.37423450  0.37423450  0.24784935  1
  Te  Te5  1  0.87386676  0.87386676  0.24816589  1
  Te  Te6  1  0.12633896  0.62582640  0.75193889  1
  Te  Te7  1  0.62582640  0.12633896  0.75193889  1
