# generated using pymatgen
data_TaAsPt2
_symmetry_space_group_name_H-M   'P 1'
_cell_length_a   5.00500292
_cell_length_b   5.00500292
_cell_length_c   4.67515544
_cell_angle_alpha   85.81323479
_cell_angle_beta   85.81323478
_cell_angle_gamma   34.53100276
_symmetry_Int_Tables_number   1
_chemical_formula_structural   TaAsPt2
_chemical_formula_sum   'Ta1 As1 Pt2'
_cell_volume   66.19139288
_cell_formula_units_Z   1
loop_
 _symmetry_equiv_pos_site_id
 _symmetry_equiv_pos_as_xyz
  1  'x, y, z'
loop_
 _atom_site_type_symbol
 _atom_site_label
 _atom_site_symmetry_multiplicity
 _atom_site_fract_x
 _atom_site_fract_y
 _atom_site_fract_z
 _atom_site_occupancy
  As  As0  1  0.75000000  0.75000000  0.75000000  1
  Pt  Pt1  1  0.98249369  0.98249369  0.00903630  1
  Pt  Pt2  1  0.51750631  0.51750631  0.49096370  1
  Ta  Ta3  1  0.25000000  0.25000000  0.25000000  1
