# generated using pymatgen
data_Na2Cr(SeO3)2
_symmetry_space_group_name_H-M   'P 1'
_cell_length_a   5.43258171
_cell_length_b   6.37679353
_cell_length_c   5.90967132
_cell_angle_alpha   117.74510000
_cell_angle_beta   90.00000000
_cell_angle_gamma   115.21176000
_symmetry_Int_Tables_number   1
_chemical_formula_structural   Na2Cr(SeO3)2
_chemical_formula_sum   'Na2 Cr1 Se2 O6'
_cell_volume   158.82100253
_cell_formula_units_Z   1
loop_
 _symmetry_equiv_pos_site_id
 _symmetry_equiv_pos_as_xyz
  1  'x, y, z'
loop_
 _atom_site_type_symbol
 _atom_site_label
 _atom_site_symmetry_multiplicity
 _atom_site_fract_x
 _atom_site_fract_y
 _atom_site_fract_z
 _atom_site_occupancy
  Na  Na0  1  0.72099660  0.44199420  0.18556703  1
  Na  Na1  1  0.27900340  0.55800580  0.81443297  1
  Cr  Cr2  1  0.50000000  0.00000000  0.50000000  1
  Se  Se3  1  0.97524406  0.95048913  0.75973797  1
  Se  Se4  1  0.02475594  0.04951087  0.24026203  1
  O  O5  1  0.65635274  0.31270449  0.49702878  1
  O  O6  1  0.15425820  0.83132669  0.20218975  1
  O  O7  1  0.32293251  0.16867331  0.79781025  1
  O  O8  1  0.84574180  0.16867331  0.79781025  1
  O  O9  1  0.67706749  0.83132669  0.20218975  1
  O  O10  1  0.34364726  0.68729551  0.50297122  1
