# generated using pymatgen
data_CeSm2Pd
_symmetry_space_group_name_H-M   'P 1'
_cell_length_a   3.77081989
_cell_length_b   3.77081989
_cell_length_c   9.95613212
_cell_angle_alpha   79.08387876
_cell_angle_beta   79.08387878
_cell_angle_gamma   59.99999995
_symmetry_Int_Tables_number   1
_chemical_formula_structural   CeSm2Pd
_chemical_formula_sum   'Ce1 Sm2 Pd1'
_cell_volume   119.63366494
_cell_formula_units_Z   1
loop_
 _symmetry_equiv_pos_site_id
 _symmetry_equiv_pos_as_xyz
  1  'x, y, z'
loop_
 _atom_site_type_symbol
 _atom_site_label
 _atom_site_symmetry_multiplicity
 _atom_site_fract_x
 _atom_site_fract_y
 _atom_site_fract_z
 _atom_site_occupancy
  Ce  Ce0  1  0.50020785  0.50020785  0.49937645  1
  Sm  Sm1  1  0.06551586  0.06551586  0.80345242  1
  Sm  Sm2  1  0.26776730  0.26776730  0.19669811  1
  Pd  Pd3  1  0.66650899  0.66650899  0.00047202  1
