# generated using pymatgen
data_FeRhS
_symmetry_space_group_name_H-M   'P 1'
_cell_length_a   3.39637036
_cell_length_b   3.27099410
_cell_length_c   7.17536387
_cell_angle_alpha   90.00000000
_cell_angle_beta   90.00000000
_cell_angle_gamma   90.00000000
_symmetry_Int_Tables_number   1
_chemical_formula_structural   FeRhS
_chemical_formula_sum   'Fe2 Rh2 S2'
_cell_volume   79.71475808
_cell_formula_units_Z   2
loop_
 _symmetry_equiv_pos_site_id
 _symmetry_equiv_pos_as_xyz
  1  'x, y, z'
loop_
 _atom_site_type_symbol
 _atom_site_label
 _atom_site_symmetry_multiplicity
 _atom_site_fract_x
 _atom_site_fract_y
 _atom_site_fract_z
 _atom_site_occupancy
  S  S0  1  0.00000000  0.00000000  0.98375569  1
  S  S1  1  0.00000000  0.50000000  0.48375569  1
  Rh  Rh2  1  0.50000000  0.00000000  0.38957221  1
  Rh  Rh3  1  0.50000000  0.50000000  0.88957221  1
  Fe  Fe4  1  0.00000000  0.00000000  0.68317209  1
  Fe  Fe5  1  0.00000000  0.50000000  0.18317209  1
