# generated using pymatgen
data_Nb(RhW)2
_symmetry_space_group_name_H-M   'P 1'
_cell_length_a   7.65616619
_cell_length_b   7.65616619
_cell_length_c   2.76472045
_cell_angle_alpha   90.00000000
_cell_angle_beta   90.00000000
_cell_angle_gamma   90.00000000
_symmetry_Int_Tables_number   1
_chemical_formula_structural   Nb(RhW)2
_chemical_formula_sum   'Nb2 Rh4 W4'
_cell_volume   162.05928887
_cell_formula_units_Z   2
loop_
 _symmetry_equiv_pos_site_id
 _symmetry_equiv_pos_as_xyz
  1  'x, y, z'
loop_
 _atom_site_type_symbol
 _atom_site_label
 _atom_site_symmetry_multiplicity
 _atom_site_fract_x
 _atom_site_fract_y
 _atom_site_fract_z
 _atom_site_occupancy
  Nb  Nb0  1  0.00000000  0.00000000  0.00000000  1
  Nb  Nb1  1  0.50000000  0.50000000  0.00000000  1
  Rh  Rh2  1  0.37496774  0.87496774  0.00000000  1
  Rh  Rh3  1  0.87496774  0.62503226  0.00000000  1
  Rh  Rh4  1  0.62503226  0.12503226  0.00000000  1
  Rh  Rh5  1  0.12503226  0.37496774  0.00000000  1
  W  W6  1  0.17103788  0.67103788  0.50000000  1
  W  W7  1  0.67103788  0.82896212  0.50000000  1
  W  W8  1  0.82896212  0.32896212  0.50000000  1
  W  W9  1  0.32896212  0.17103788  0.50000000  1
