# generated using pymatgen
data_Cd2PCl
_symmetry_space_group_name_H-M   'P 1'
_cell_length_a   6.03498635
_cell_length_b   6.03498635
_cell_length_c   7.63765009
_cell_angle_alpha   66.72895167
_cell_angle_beta   66.72895167
_cell_angle_gamma   90.00000000
_symmetry_Int_Tables_number   1
_chemical_formula_structural   Cd2PCl
_chemical_formula_sum   'Cd4 P2 Cl2'
_cell_volume   230.70138215
_cell_formula_units_Z   2
loop_
 _symmetry_equiv_pos_site_id
 _symmetry_equiv_pos_as_xyz
  1  'x, y, z'
loop_
 _atom_site_type_symbol
 _atom_site_label
 _atom_site_symmetry_multiplicity
 _atom_site_fract_x
 _atom_site_fract_y
 _atom_site_fract_z
 _atom_site_occupancy
  P  P0  1  0.50000000  0.50000000  0.00000000  1
  P  P1  1  0.25000000  0.75000000  0.50000000  1
  Cl  Cl2  1  0.00000000  0.00000000  0.00000000  1
  Cl  Cl3  1  0.75000000  0.25000000  0.50000000  1
  Cd  Cd4  1  0.57170971  0.12500000  0.25000000  1
  Cd  Cd5  1  0.17829029  0.62500000  0.25000000  1
  Cd  Cd6  1  0.37500000  0.42829029  0.75000000  1
  Cd  Cd7  1  0.87500000  0.82170971  0.75000000  1
