# generated using pymatgen
data_Rb(GaPb)2
_symmetry_space_group_name_H-M   'P 1'
_cell_length_a   9.39412333
_cell_length_b   9.39412333
_cell_length_c   3.45467826
_cell_angle_alpha   90.00000000
_cell_angle_beta   90.00000000
_cell_angle_gamma   90.00000000
_symmetry_Int_Tables_number   1
_chemical_formula_structural   Rb(GaPb)2
_chemical_formula_sum   'Rb2 Ga4 Pb4'
_cell_volume   304.87381268
_cell_formula_units_Z   2
loop_
 _symmetry_equiv_pos_site_id
 _symmetry_equiv_pos_as_xyz
  1  'x, y, z'
loop_
 _atom_site_type_symbol
 _atom_site_label
 _atom_site_symmetry_multiplicity
 _atom_site_fract_x
 _atom_site_fract_y
 _atom_site_fract_z
 _atom_site_occupancy
  Pb  Pb0  1  0.37087161  0.87087161  0.00000000  1
  Pb  Pb1  1  0.87087161  0.62912839  0.00000000  1
  Pb  Pb2  1  0.62912839  0.12912839  0.00000000  1
  Pb  Pb3  1  0.12912839  0.37087161  0.00000000  1
  Ga  Ga4  1  0.15163335  0.65163335  0.50000000  1
  Ga  Ga5  1  0.65163335  0.84836665  0.50000000  1
  Ga  Ga6  1  0.84836665  0.34836665  0.50000000  1
  Ga  Ga7  1  0.34836665  0.15163335  0.50000000  1
  Rb  Rb8  1  0.00000000  0.00000000  0.00000000  1
  Rb  Rb9  1  0.50000000  0.50000000  0.00000000  1
