# generated using pymatgen
data_CrFe2P
_symmetry_space_group_name_H-M   'P 1'
_cell_length_a   3.56939542
_cell_length_b   4.19052756
_cell_length_c   4.19055036
_cell_angle_alpha   50.41327412
_cell_angle_beta   64.80655296
_cell_angle_gamma   64.80625879
_symmetry_Int_Tables_number   1
_chemical_formula_structural   CrFe2P
_chemical_formula_sum   'Cr1 Fe2 P1'
_cell_volume   42.62545128
_cell_formula_units_Z   1
loop_
 _symmetry_equiv_pos_site_id
 _symmetry_equiv_pos_as_xyz
  1  'x, y, z'
loop_
 _atom_site_type_symbol
 _atom_site_label
 _atom_site_symmetry_multiplicity
 _atom_site_fract_x
 _atom_site_fract_y
 _atom_site_fract_z
 _atom_site_occupancy
  Cr  Cr0  1  0.24999550  0.24999956  0.25000072  1
  Fe  Fe1  1  0.50008399  0.49997449  0.49997258  1
  Fe  Fe2  1  0.99992592  0.00003078  0.00002273  1
  P  P3  1  0.74999160  0.74999817  0.75000197  1
