# generated using pymatgen
data_Zn2FeNi
_symmetry_space_group_name_H-M   'P 1'
_cell_length_a   5.92661711
_cell_length_b   4.45542733
_cell_length_c   2.61945855
_cell_angle_alpha   89.74930201
_cell_angle_beta   64.18903926
_cell_angle_gamma   122.48703171
_symmetry_Int_Tables_number   1
_chemical_formula_structural   Zn2FeNi
_chemical_formula_sum   'Zn2 Fe1 Ni1'
_cell_volume   49.87193362
_cell_formula_units_Z   1
loop_
 _symmetry_equiv_pos_site_id
 _symmetry_equiv_pos_as_xyz
  1  'x, y, z'
loop_
 _atom_site_type_symbol
 _atom_site_label
 _atom_site_symmetry_multiplicity
 _atom_site_fract_x
 _atom_site_fract_y
 _atom_site_fract_z
 _atom_site_occupancy
  Fe  Fe0  1  0.00000000  0.50000000  0.50000000  1
  Ni  Ni1  1  0.50000000  0.50000000  -0.00000000  1
  Zn  Zn2  1  0.00000000  0.00000000  0.00000000  1
  Zn  Zn3  1  0.50000000  0.00000000  0.50000000  1
