# generated using pymatgen
data_Mg2MnH24(ClO2)6
_symmetry_space_group_name_H-M   'P 1'
_cell_length_a   9.97684528
_cell_length_b   9.97684528
_cell_length_c   11.56139352
_cell_angle_alpha   90.00000000
_cell_angle_beta   90.00000000
_cell_angle_gamma   120.00000001
_symmetry_Int_Tables_number   1
_chemical_formula_structural   Mg2MnH24(ClO2)6
_chemical_formula_sum   'Mg4 Mn2 H48 Cl12 O24'
_cell_volume   996.61470261
_cell_formula_units_Z   2
loop_
 _symmetry_equiv_pos_site_id
 _symmetry_equiv_pos_as_xyz
  1  'x, y, z'
loop_
 _atom_site_type_symbol
 _atom_site_label
 _atom_site_symmetry_multiplicity
 _atom_site_fract_x
 _atom_site_fract_y
 _atom_site_fract_z
 _atom_site_occupancy
  Mg  Mg0  1  0.66666700  0.33333300  0.00258363  1
  Mg  Mg1  1  0.33333300  0.66666700  0.50258363  1
  Mg  Mg2  1  0.00000000  0.00000000  0.39926983  1
  Mg  Mg3  1  0.00000000  0.00000000  0.89926983  1
  Mn  Mn4  1  0.66666700  0.33333300  0.50088240  1
  Mn  Mn5  1  0.33333300  0.66666700  0.00088240  1
  H  H6  1  0.56124953  0.04074033  0.09828469  1
  H  H7  1  0.47949180  0.43875047  0.09828469  1
  H  H8  1  0.95925967  0.52050820  0.09828469  1
  H  H9  1  0.52050820  0.95925967  0.59828469  1
  H  H10  1  0.04074033  0.56124953  0.59828469  1
  H  H11  1  0.43875047  0.47949180  0.59828469  1
  H  H12  1  0.53651290  0.14164498  0.18909121  1
  H  H13  1  0.60513308  0.46348710  0.18909121  1
  H  H14  1  0.85835502  0.39486692  0.18909121  1
  H  H15  1  0.39486692  0.85835502  0.68909121  1
  H  H16  1  0.14164498  0.53651290  0.68909121  1
  H  H17  1  0.46348710  0.60513308  0.68909121  1
  H  H18  1  0.47041379  0.38834180  0.88863417  1
  H  H19  1  0.91792901  0.52958621  0.88863417  1
  H  H20  1  0.61165820  0.08207099  0.88863417  1
  H  H21  1  0.08207099  0.61165820  0.38863417  1
  H  H22  1  0.38834180  0.47041379  0.38863417  1
  H  H23  1  0.52958621  0.91792901  0.38863417  1
  H  H24  1  0.46600587  0.25702736  0.81310012  1
  H  H25  1  0.79102250  0.53399413  0.81310012  1
  H  H26  1  0.74297264  0.20897750  0.81310012  1
  H  H27  1  0.20897750  0.74297264  0.31310012  1
  H  H28  1  0.25702736  0.46600587  0.31310012  1
  H  H29  1  0.53399413  0.79102250  0.31310012  1
  H  H30  1  0.13388902  0.29581446  0.47068074  1
  H  H31  1  0.16192644  0.86611098  0.47068074  1
  H  H32  1  0.70418554  0.83807356  0.47068074  1
  H  H33  1  0.83807356  0.70418554  0.97068074  1
  H  H34  1  0.29581446  0.13388902  0.97068074  1
  H  H35  1  0.86611098  0.16192644  0.97068074  1
  H  H36  1  0.97532644  0.20426306  0.53899992  1
  H  H37  1  0.22893763  0.02467356  0.53899992  1
  H  H38  1  0.79573694  0.77106237  0.53899992  1
  H  H39  1  0.77106237  0.79573694  0.03899992  1
  H  H40  1  0.20426306  0.97532644  0.03899992  1
  H  H41  1  0.02467356  0.22893763  0.03899992  1
  H  H42  1  0.29423868  0.12699264  0.31075295  1
  H  H43  1  0.83275496  0.70576132  0.31075295  1
  H  H44  1  0.87300736  0.16724504  0.31075295  1
  H  H45  1  0.16724504  0.87300736  0.81075295  1
  H  H46  1  0.12699264  0.29423868  0.81075295  1
  H  H47  1  0.70576132  0.83275496  0.81075295  1
  H  H48  1  0.20805668  0.18758938  0.22756220  1
  H  H49  1  0.97953370  0.79194332  0.22756220  1
  H  H50  1  0.81241062  0.02046630  0.22756220  1
  H  H51  1  0.02046630  0.81241062  0.72756220  1
  H  H52  1  0.18758938  0.20805668  0.72756220  1
  H  H53  1  0.79194332  0.97953370  0.72756220  1
  Cl  Cl54  1  0.49286655  0.10552259  0.36641724  1
  Cl  Cl55  1  0.61265704  0.50713345  0.36641724  1
  Cl  Cl56  1  0.89447741  0.38734296  0.36641724  1
  Cl  Cl57  1  0.38734296  0.89447741  0.86641724  1
  Cl  Cl58  1  0.10552259  0.49286655  0.86641724  1
  Cl  Cl59  1  0.50713345  0.61265704  0.86641724  1
  Cl  Cl60  1  0.74840369  0.17043643  0.62558664  1
  Cl  Cl61  1  0.42203374  0.25159631  0.62558664  1
  Cl  Cl62  1  0.82956357  0.57796626  0.62558664  1
  Cl  Cl63  1  0.57796626  0.82956357  0.12558664  1
  Cl  Cl64  1  0.17043643  0.74840369  0.12558664  1
  Cl  Cl65  1  0.25159631  0.42203374  0.12558664  1
  O  O66  1  0.55754557  0.13754144  0.10566273  1
  O  O67  1  0.57999687  0.44245443  0.10566273  1
  O  O68  1  0.86245856  0.42000313  0.10566273  1
  O  O69  1  0.42000313  0.86245856  0.60566273  1
  O  O70  1  0.13754144  0.55754557  0.60566273  1
  O  O71  1  0.44245443  0.57999687  0.60566273  1
  O  O72  1  0.47540322  0.29104125  0.89487546  1
  O  O73  1  0.81563903  0.52459678  0.89487546  1
  O  O74  1  0.70895875  0.18436097  0.89487546  1
  O  O75  1  0.18436097  0.70895875  0.39487546  1
  O  O76  1  0.29104125  0.47540322  0.39487546  1
  O  O77  1  0.52459678  0.81563903  0.39487546  1
  O  O78  1  0.05907550  0.19373909  0.50308805  1
  O  O79  1  0.13466459  0.94092450  0.50308805  1
  O  O80  1  0.80626091  0.86533541  0.50308805  1
  O  O81  1  0.86533541  0.80626091  0.00308805  1
  O  O82  1  0.19373909  0.05907550  0.00308805  1
  O  O83  1  0.94092450  0.13466459  0.00308805  1
  O  O84  1  0.19505185  0.12295757  0.29504861  1
  O  O85  1  0.92790672  0.80494815  0.29504861  1
  O  O86  1  0.87704243  0.07209328  0.29504861  1
  O  O87  1  0.07209328  0.87704243  0.79504861  1
  O  O88  1  0.12295757  0.19505185  0.79504861  1
  O  O89  1  0.80494815  0.92790672  0.79504861  1
