# generated using pymatgen
data_AgHgTeI
_symmetry_space_group_name_H-M   'P 1'
_cell_length_a   4.70165303
_cell_length_b   4.70165303
_cell_length_c   8.16206987
_cell_angle_alpha   89.96353285
_cell_angle_beta   106.77250149
_cell_angle_gamma   120.00948607
_symmetry_Int_Tables_number   1
_chemical_formula_structural   AgHgTeI
_chemical_formula_sum   'Ag1 Hg1 Te1 I1'
_cell_volume   147.32897431
_cell_formula_units_Z   1
loop_
 _symmetry_equiv_pos_site_id
 _symmetry_equiv_pos_as_xyz
  1  'x, y, z'
loop_
 _atom_site_type_symbol
 _atom_site_label
 _atom_site_symmetry_multiplicity
 _atom_site_fract_x
 _atom_site_fract_y
 _atom_site_fract_z
 _atom_site_occupancy
  Ag  Ag0  1  0.44747606  0.60643604  0.05391209  1
  Hg  Hg1  1  0.47118756  0.12111976  0.59230732  1
  Te  Te2  1  0.20578829  0.48805962  0.69384791  1
  I  I3  1  0.20457808  0.98515459  0.18973267  1
