# generated using pymatgen
data_Nd2Ga4Ru3
_symmetry_space_group_name_H-M   'P 1'
_cell_length_a   5.98157896
_cell_length_b   7.51935693
_cell_length_c   8.03184276
_cell_angle_alpha   90.00000000
_cell_angle_beta   111.86164203
_cell_angle_gamma   90.00000000
_symmetry_Int_Tables_number   1
_chemical_formula_structural   Nd2Ga4Ru3
_chemical_formula_sum   'Nd4 Ga8 Ru6'
_cell_volume   335.27397474
_cell_formula_units_Z   2
loop_
 _symmetry_equiv_pos_site_id
 _symmetry_equiv_pos_as_xyz
  1  'x, y, z'
loop_
 _atom_site_type_symbol
 _atom_site_label
 _atom_site_symmetry_multiplicity
 _atom_site_fract_x
 _atom_site_fract_y
 _atom_site_fract_z
 _atom_site_occupancy
  Nd  Nd0  1  0.12059967  0.59088950  0.24119934  1
  Nd  Nd1  1  0.87940033  0.40911050  0.75880066  1
  Nd  Nd2  1  0.37940033  0.09088950  0.75880066  1
  Nd  Nd3  1  0.62059967  0.90911050  0.24119934  1
  Ga  Ga4  1  0.69624191  0.75000000  0.89248383  1
  Ga  Ga5  1  0.80375809  0.25000000  0.10751617  1
  Ga  Ga6  1  0.30375809  0.25000000  0.10751617  1
  Ga  Ga7  1  0.19624191  0.75000000  0.89248383  1
  Ga  Ga8  1  0.17899640  0.98462876  0.35799280  1
  Ga  Ga9  1  0.82100360  0.01537124  0.64200720  1
  Ga  Ga10  1  0.32100360  0.48462876  0.64200720  1
  Ga  Ga11  1  0.67899640  0.51537124  0.35799280  1
  Ru  Ru12  1  0.00000000  0.00000000  0.00000000  1
  Ru  Ru13  1  0.50000000  0.50000000  0.00000000  1
  Ru  Ru14  1  0.52265175  0.75000000  0.54530350  1
  Ru  Ru15  1  0.97734825  0.25000000  0.45469650  1
  Ru  Ru16  1  0.47734825  0.25000000  0.45469650  1
  Ru  Ru17  1  0.02265175  0.75000000  0.54530350  1
