# generated using pymatgen
data_LiMgCoSb
_symmetry_space_group_name_H-M   'P 1'
_cell_length_a   4.45303465
_cell_length_b   4.45303465
_cell_length_c   4.45303465
_cell_angle_alpha   60.00000000
_cell_angle_beta   60.00000000
_cell_angle_gamma   60.00000000
_symmetry_Int_Tables_number   1
_chemical_formula_structural   LiMgCoSb
_chemical_formula_sum   'Li1 Mg1 Co1 Sb1'
_cell_volume   62.43861003
_cell_formula_units_Z   1
loop_
 _symmetry_equiv_pos_site_id
 _symmetry_equiv_pos_as_xyz
  1  'x, y, z'
loop_
 _atom_site_type_symbol
 _atom_site_label
 _atom_site_symmetry_multiplicity
 _atom_site_fract_x
 _atom_site_fract_y
 _atom_site_fract_z
 _atom_site_occupancy
  Co  Co0  1  0.75000056  0.75000056  0.75000056  1
  Li  Li1  1  0.49999984  0.49999984  0.49999984  1
  Mg  Mg2  1  0.25000071  0.25000071  0.25000071  1
  Sb  Sb3  1  0.00000000  0.00000000  0.00000000  1
