# generated using pymatgen
data_Sr2LiNpSe4
_symmetry_space_group_name_H-M   'P 1'
_cell_length_a   4.31506940
_cell_length_b   7.36826688
_cell_length_c   7.40128559
_cell_angle_alpha   109.13909267
_cell_angle_beta   90.00000000
_cell_angle_gamma   90.00000000
_symmetry_Int_Tables_number   1
_chemical_formula_structural   Sr2LiNpSe4
_chemical_formula_sum   'Sr2 Li1 Np1 Se4'
_cell_volume   222.31353379
_cell_formula_units_Z   1
loop_
 _symmetry_equiv_pos_site_id
 _symmetry_equiv_pos_as_xyz
  1  'x, y, z'
loop_
 _atom_site_type_symbol
 _atom_site_label
 _atom_site_symmetry_multiplicity
 _atom_site_fract_x
 _atom_site_fract_y
 _atom_site_fract_z
 _atom_site_occupancy
  Sr  Sr0  1  0.50000000  -0.00000000  0.50000000  1
  Sr  Sr1  1  0.00000000  0.50000000  0.50000000  1
  Li  Li2  1  0.50000000  0.50000000  0.00000000  1
  Np  Np3  1  0.00000000  0.00000000  0.00000000  1
  Se  Se4  1  0.50000000  0.24277849  0.22877465  1
  Se  Se5  1  0.50000000  0.75722151  0.77122535  1
  Se  Se6  1  0.00000000  0.25221336  0.76907086  1
  Se  Se7  1  0.00000000  0.74778664  0.23092914  1
