# generated using pymatgen
data_PaCoHgO5
_symmetry_space_group_name_H-M   'P 1'
_cell_length_a   6.11648300
_cell_length_b   6.11648300
_cell_length_c   8.60453766
_cell_angle_alpha   110.41414750
_cell_angle_beta   110.41414749
_cell_angle_gamma   95.71660066
_symmetry_Int_Tables_number   1
_chemical_formula_structural   PaCoHgO5
_chemical_formula_sum   'Pa2 Co2 Hg2 O10'
_cell_volume   273.62385235
_cell_formula_units_Z   2
loop_
 _symmetry_equiv_pos_site_id
 _symmetry_equiv_pos_as_xyz
  1  'x, y, z'
loop_
 _atom_site_type_symbol
 _atom_site_label
 _atom_site_symmetry_multiplicity
 _atom_site_fract_x
 _atom_site_fract_y
 _atom_site_fract_z
 _atom_site_occupancy
  Pa  Pa0  1  -0.00000000  0.00000000  0.50000000  1
  Pa  Pa1  1  0.00000000  0.00000000  0.00000000  1
  Co  Co2  1  0.66854362  0.33145638  0.25000000  1
  Co  Co3  1  0.33145638  0.66854362  0.75000000  1
  Hg  Hg4  1  0.31797020  0.68202980  0.25000000  1
  Hg  Hg5  1  0.68202980  0.31797020  0.75000000  1
  O  O6  1  0.08302926  0.91697074  0.25000000  1
  O  O7  1  0.91697074  0.08302926  0.75000000  1
  O  O8  1  0.79389610  0.24270158  0.08261806  1
  O  O9  1  0.20610390  0.75729842  0.91738194  1
  O  O10  1  0.75729842  0.20610390  0.41738194  1
  O  O11  1  0.24270158  0.79389610  0.58261806  1
  O  O12  1  0.70910598  0.67390683  0.35340725  1
  O  O13  1  0.29089402  0.32609317  0.64659275  1
  O  O14  1  0.32609317  0.29089402  0.14659275  1
  O  O15  1  0.67390683  0.70910598  0.85340725  1
