# generated using pymatgen
data_PrTaRh
_symmetry_space_group_name_H-M   'P 1'
_cell_length_a   4.56235591
_cell_length_b   4.56235591
_cell_length_c   6.75647557
_cell_angle_alpha   90.00000000
_cell_angle_beta   90.00000000
_cell_angle_gamma   90.00000000
_symmetry_Int_Tables_number   1
_chemical_formula_structural   PrTaRh
_chemical_formula_sum   'Pr2 Ta2 Rh2'
_cell_volume   140.63665687
_cell_formula_units_Z   2
loop_
 _symmetry_equiv_pos_site_id
 _symmetry_equiv_pos_as_xyz
  1  'x, y, z'
loop_
 _atom_site_type_symbol
 _atom_site_label
 _atom_site_symmetry_multiplicity
 _atom_site_fract_x
 _atom_site_fract_y
 _atom_site_fract_z
 _atom_site_occupancy
  Rh  Rh0  1  0.50000000  0.00000000  0.68100559  1
  Rh  Rh1  1  0.00000000  0.50000000  0.31899441  1
  Pr  Pr2  1  0.50000000  0.00000000  0.12820472  1
  Pr  Pr3  1  0.00000000  0.50000000  0.87179528  1
  Ta  Ta4  1  0.50000000  0.50000000  0.50000000  1
  Ta  Ta5  1  0.00000000  0.00000000  0.50000000  1
