# generated using pymatgen
data_Pr(TmTh)2
_symmetry_space_group_name_H-M   'P 1'
_cell_length_a   3.56505505
_cell_length_b   3.56505505
_cell_length_c   14.60621307
_cell_angle_alpha   90.00000000
_cell_angle_beta   90.00000000
_cell_angle_gamma   120.00000006
_symmetry_Int_Tables_number   1
_chemical_formula_structural   Pr(TmTh)2
_chemical_formula_sum   'Pr1 Tm2 Th2'
_cell_volume   160.76842026
_cell_formula_units_Z   1
loop_
 _symmetry_equiv_pos_site_id
 _symmetry_equiv_pos_as_xyz
  1  'x, y, z'
loop_
 _atom_site_type_symbol
 _atom_site_label
 _atom_site_symmetry_multiplicity
 _atom_site_fract_x
 _atom_site_fract_y
 _atom_site_fract_z
 _atom_site_occupancy
  Pr  Pr0  1  0.00000000  0.00000000  0.50000237  1
  Tm  Tm1  1  0.66666667  0.33333333  0.70114832  1
  Tm  Tm2  1  0.33333333  0.66666667  0.29885268  1
  Th  Th3  1  0.33333333  0.66666667  0.90059055  1
  Th  Th4  1  0.66666667  0.33333333  0.09941108  1
