# generated using pymatgen
data_Nd3MgAgHg3Pd
_symmetry_space_group_name_H-M   'P 1'
_cell_length_a   8.12964881
_cell_length_b   8.12964880
_cell_length_c   3.88698465
_cell_angle_alpha   90.00000000
_cell_angle_beta   90.00000000
_cell_angle_gamma   120.00000000
_symmetry_Int_Tables_number   1
_chemical_formula_structural   Nd3MgAgHg3Pd
_chemical_formula_sum   'Nd3 Mg1 Ag1 Hg3 Pd1'
_cell_volume   222.47797696
_cell_formula_units_Z   1
loop_
 _symmetry_equiv_pos_site_id
 _symmetry_equiv_pos_as_xyz
  1  'x, y, z'
loop_
 _atom_site_type_symbol
 _atom_site_label
 _atom_site_symmetry_multiplicity
 _atom_site_fract_x
 _atom_site_fract_y
 _atom_site_fract_z
 _atom_site_occupancy
  Ag  Ag0  1  0.00000000  0.00000000  0.00000000  1
  Hg  Hg1  1  0.26964624  0.28643776  0.49999940  1
  Hg  Hg2  1  0.01679140  0.73035336  0.49999940  1
  Hg  Hg3  1  0.71356203  0.98320820  0.49999940  1
  Mg  Mg4  1  0.33333298  0.66666597  0.49999940  1
  Nd  Nd5  1  0.40973583  0.03206740  0.00000000  1
  Nd  Nd6  1  0.96793321  0.37766872  0.00000000  1
  Nd  Nd7  1  0.62233163  0.59026353  0.00000000  1
  Pd  Pd8  1  0.66666631  0.33333369  0.49999940  1
