# generated using pymatgen
data_GeSe2
_symmetry_space_group_name_H-M   'P 1'
_cell_length_a   7.37226726
_cell_length_b   11.14391823
_cell_length_c   16.76977285
_cell_angle_alpha   90.00000000
_cell_angle_beta   90.00000000
_cell_angle_gamma   90.00001130
_symmetry_Int_Tables_number   1
_chemical_formula_structural   GeSe2
_chemical_formula_sum   'Ge4 Se8'
_cell_volume   1377.73651103
_cell_formula_units_Z   4
loop_
 _symmetry_equiv_pos_site_id
 _symmetry_equiv_pos_as_xyz
  1  'x, y, z'
loop_
 _atom_site_type_symbol
 _atom_site_label
 _atom_site_symmetry_multiplicity
 _atom_site_fract_x
 _atom_site_fract_y
 _atom_site_fract_z
 _atom_site_occupancy
  Ge  Ge0  1  0.16053869  0.74644351  0.44073626  1
  Ge  Ge1  1  0.83946049  0.25355493  0.44073623  1
  Ge  Ge2  1  0.33945947  0.24644267  0.44073625  1
  Ge  Ge3  1  0.66053968  0.75355614  0.44073624  1
  Se  Se4  1  0.26285237  0.05830140  0.51299406  1
  Se  Se5  1  0.73714477  0.94169767  0.51299406  1
  Se  Se6  1  0.08822641  0.23486765  0.54626910  1
  Se  Se7  1  0.91177245  0.76512950  0.54626949  1
  Se  Se8  1  0.76285024  0.44169163  0.51299469  1
  Se  Se9  1  0.23714862  0.55830544  0.51299423  1
  Se  Se10  1  0.58822039  0.26513364  0.54626973  1
  Se  Se11  1  0.41177643  0.73486580  0.54626967  1
