# generated using pymatgen
data_SrAl2(SiO4)2
_symmetry_space_group_name_H-M   'P 1'
_cell_length_a   10.06755171
_cell_length_b   9.75156901
_cell_length_c   9.75154809
_cell_angle_alpha   71.30191340
_cell_angle_beta   75.83400193
_cell_angle_gamma   75.83474057
_symmetry_Int_Tables_number   1
_chemical_formula_structural   SrAl2(SiO4)2
_chemical_formula_sum   'Sr4 Al8 Si8 O32'
_cell_volume   864.72097432
_cell_formula_units_Z   4
loop_
 _symmetry_equiv_pos_site_id
 _symmetry_equiv_pos_as_xyz
  1  'x, y, z'
loop_
 _atom_site_type_symbol
 _atom_site_label
 _atom_site_symmetry_multiplicity
 _atom_site_fract_x
 _atom_site_fract_y
 _atom_site_fract_z
 _atom_site_occupancy
  Sr  Sr0  1  0.26248544  0.08680711  0.33680566  1
  Sr  Sr1  1  0.73751456  0.91319289  0.66319434  1
  Sr  Sr2  1  0.23752191  0.66319772  0.91318971  1
  Sr  Sr3  1  0.76247809  0.33680228  0.08681029  1
  Al  Al4  1  0.10005528  0.08021791  0.07954883  1
  Al  Al5  1  0.81294129  0.67306634  0.45851084  1
  Al  Al6  1  0.39994117  0.92045226  0.91978323  1
  Al  Al7  1  0.31294132  0.45851264  0.67307029  1
  Al  Al8  1  0.60005883  0.07954774  0.08021677  1
  Al  Al9  1  0.18705871  0.32693366  0.54148916  1
  Al  Al10  1  0.89994472  0.91978209  0.92045117  1
  Al  Al11  1  0.68705868  0.54148736  0.32692971  1
  Si  Si12  1  0.33840590  0.23315863  0.98213174  1
  Si  Si13  1  0.66159410  0.76684137  0.01786826  1
  Si  Si14  1  0.02029461  0.45868591  0.25769329  1
  Si  Si15  1  0.97970539  0.54131309  0.74230671  1
  Si  Si16  1  0.16159508  0.01787376  0.76684001  1
  Si  Si17  1  0.83840492  0.98212624  0.23315999  1
  Si  Si18  1  0.47971302  0.74230463  0.54131049  1
  Si  Si19  1  0.52028698  0.25769537  0.45868951  1
  O  O20  1  0.87289637  0.62067360  0.62307834  1
  O  O21  1  0.09972597  0.09905658  0.89662115  1
  O  O22  1  0.36611248  0.34835599  0.54352398  1
  O  O23  1  0.62709584  0.37692317  0.37932044  1
  O  O24  1  0.41789759  0.88666049  0.42957400  1
  O  O25  1  0.32817293  0.39539653  0.85939901  1
  O  O26  1  0.13388461  0.45648536  0.65164362  1
  O  O27  1  0.29902615  0.82233168  0.08583686  1
  O  O28  1  0.59972758  0.89662150  0.09905209  1
  O  O29  1  0.44110980  0.20708622  0.10121328  1
  O  O30  1  0.63388752  0.65164401  0.45647602  1
  O  O31  1  0.68553934  0.08778836  0.21616581  1
  O  O32  1  0.37290416  0.62307683  0.62067956  1
  O  O33  1  0.05889519  0.89878798  0.79291262  1
  O  O34  1  0.17182515  0.14060509  0.60460436  1
  O  O35  1  0.18553959  0.21616372  0.08779370  1
  O  O36  1  0.58210241  0.11333951  0.57042600  1
  O  O37  1  0.86611539  0.54351464  0.34835638  1
  O  O38  1  0.82817485  0.85939491  0.39539564  1
  O  O39  1  0.12710363  0.37932640  0.37692166  1
  O  O40  1  0.55889020  0.79291378  0.89878672  1
  O  O41  1  0.40027242  0.10337850  0.90094791  1
  O  O42  1  0.81446041  0.78383628  0.91220630  1
  O  O43  1  0.31446066  0.91221164  0.78383419  1
  O  O44  1  0.08210620  0.57042354  0.11333908  1
  O  O45  1  0.90027403  0.90094342  0.10337885  1
  O  O46  1  0.67182707  0.60460347  0.14060099  1
  O  O47  1  0.79902888  0.08583442  0.82233255  1
  O  O48  1  0.70097385  0.17766832  0.91416314  1
  O  O49  1  0.91789380  0.42957646  0.88666092  1
  O  O50  1  0.94110481  0.10121202  0.20708738  1
  O  O51  1  0.20097112  0.91416558  0.17766745  1
