# generated using pymatgen
data_CaGaF2
_symmetry_space_group_name_H-M   'P 1'
_cell_length_a   7.12991213
_cell_length_b   7.12991213
_cell_length_c   7.12991213
_cell_angle_alpha   33.25950520
_cell_angle_beta   33.25950515
_cell_angle_gamma   33.25950515
_symmetry_Int_Tables_number   1
_chemical_formula_structural   CaGaF2
_chemical_formula_sum   'Ca1 Ga1 F2'
_cell_volume   97.05751023
_cell_formula_units_Z   1
loop_
 _symmetry_equiv_pos_site_id
 _symmetry_equiv_pos_as_xyz
  1  'x, y, z'
loop_
 _atom_site_type_symbol
 _atom_site_label
 _atom_site_symmetry_multiplicity
 _atom_site_fract_x
 _atom_site_fract_y
 _atom_site_fract_z
 _atom_site_occupancy
  Ca  Ca0  1  0.00000000  0.00000000  0.00000000  1
  Ga  Ga1  1  0.50000000  0.50000000  0.50000000  1
  F  F2  1  0.89463573  0.89463573  0.89463573  1
  F  F3  1  0.10536427  0.10536427  0.10536427  1
