# generated using pymatgen
data_BaPaSi
_symmetry_space_group_name_H-M   'P 1'
_cell_length_a   4.96848050
_cell_length_b   4.96848050
_cell_length_c   4.96848050
_cell_angle_alpha   60.00000000
_cell_angle_beta   60.00000000
_cell_angle_gamma   60.00000000
_symmetry_Int_Tables_number   1
_chemical_formula_structural   BaPaSi
_chemical_formula_sum   'Ba1 Pa1 Si1'
_cell_volume   86.72728912
_cell_formula_units_Z   1
loop_
 _symmetry_equiv_pos_site_id
 _symmetry_equiv_pos_as_xyz
  1  'x, y, z'
loop_
 _atom_site_type_symbol
 _atom_site_label
 _atom_site_symmetry_multiplicity
 _atom_site_fract_x
 _atom_site_fract_y
 _atom_site_fract_z
 _atom_site_occupancy
  Ba  Ba0  1  0.00000000  0.00000000  0.00000000  1
  Pa  Pa1  1  0.24999955  0.24999955  0.24999955  1
  Si  Si2  1  0.75000009  0.75000009  0.75000009  1
