# generated using pymatgen
data_SrTcBr2
_symmetry_space_group_name_H-M   'P 1'
_cell_length_a   4.05317080
_cell_length_b   4.06896427
_cell_length_c   6.55099661
_cell_angle_alpha   90.00000000
_cell_angle_beta   90.00000000
_cell_angle_gamma   90.00000000
_symmetry_Int_Tables_number   1
_chemical_formula_structural   SrTcBr2
_chemical_formula_sum   'Sr1 Tc1 Br2'
_cell_volume   108.04039323
_cell_formula_units_Z   1
loop_
 _symmetry_equiv_pos_site_id
 _symmetry_equiv_pos_as_xyz
  1  'x, y, z'
loop_
 _atom_site_type_symbol
 _atom_site_label
 _atom_site_symmetry_multiplicity
 _atom_site_fract_x
 _atom_site_fract_y
 _atom_site_fract_z
 _atom_site_occupancy
  Sr  Sr0  1  0.00000000  0.00000000  0.47356226  1
  Tc  Tc1  1  0.50000000  0.50000000  0.76547902  1
  Br  Br2  1  0.00000000  0.00000000  0.93354468  1
  Br  Br3  1  0.50000000  0.50000000  0.32741404  1
