# generated using pymatgen
data_Ce2Sm3PuN6
_symmetry_space_group_name_H-M   'P 1'
_cell_length_a   6.16600711
_cell_length_b   6.16600711
_cell_length_c   6.16963099
_cell_angle_alpha   99.61045372
_cell_angle_beta   99.61045368
_cell_angle_gamma   119.99771330
_symmetry_Int_Tables_number   1
_chemical_formula_structural   Ce2Sm3PuN6
_chemical_formula_sum   'Ce2 Sm3 Pu1 N6'
_cell_volume   191.48799443
_cell_formula_units_Z   1
loop_
 _symmetry_equiv_pos_site_id
 _symmetry_equiv_pos_as_xyz
  1  'x, y, z'
loop_
 _atom_site_type_symbol
 _atom_site_label
 _atom_site_symmetry_multiplicity
 _atom_site_fract_x
 _atom_site_fract_y
 _atom_site_fract_z
 _atom_site_occupancy
  Ce  Ce0  1  0.33341222  0.66658778  0.00000000  1
  Ce  Ce1  1  0.66658778  0.33341222  0.00000000  1
  Sm  Sm2  1  0.16668217  0.83331783  0.50000000  1
  Sm  Sm3  1  0.83331783  0.16668217  0.50000000  1
  Sm  Sm4  1  0.50000000  0.50000000  0.50000000  1
  Pu  Pu5  1  0.00000000  0.00000000  0.00000000  1
  N  N6  1  0.92075966  0.59253784  0.76202881  1
  N  N7  1  0.75079392  0.75079392  0.23934513  1
  N  N8  1  0.07924034  0.40746216  0.23797119  1
  N  N9  1  0.59253784  0.92075966  0.76202881  1
  N  N10  1  0.24920608  0.24920608  0.76065487  1
  N  N11  1  0.40746216  0.07924034  0.23797119  1
