# generated using pymatgen
data_LaCeIr
_symmetry_space_group_name_H-M   'P 1'
_cell_length_a   4.13267341
_cell_length_b   4.44571247
_cell_length_c   8.36823553
_cell_angle_alpha   90.00226458
_cell_angle_beta   85.69340864
_cell_angle_gamma   89.99743422
_symmetry_Int_Tables_number   1
_chemical_formula_structural   LaCeIr
_chemical_formula_sum   'La2 Ce2 Ir2'
_cell_volume   153.31279013
_cell_formula_units_Z   2
loop_
 _symmetry_equiv_pos_site_id
 _symmetry_equiv_pos_as_xyz
  1  'x, y, z'
loop_
 _atom_site_type_symbol
 _atom_site_label
 _atom_site_symmetry_multiplicity
 _atom_site_fract_x
 _atom_site_fract_y
 _atom_site_fract_z
 _atom_site_occupancy
  La  La0  1  0.79551332  0.86649736  0.56035125  1
  La  La1  1  0.33166710  0.36650704  0.27882457  1
  Ce  Ce2  1  0.85585062  0.36645202  0.89396292  1
  Ce  Ce3  1  0.27132281  0.86645830  0.94525908  1
  Ir  Ir4  1  0.80966450  0.86646547  0.19095674  1
  Ir  Ir5  1  0.31749766  0.36644482  0.64826525  1
