# generated using pymatgen
data_LiGdHoOs
_symmetry_space_group_name_H-M   'P 1'
_cell_length_a   4.90437561
_cell_length_b   4.90437561
_cell_length_c   4.90437562
_cell_angle_alpha   59.99999998
_cell_angle_beta   59.99999997
_cell_angle_gamma   59.99999996
_symmetry_Int_Tables_number   1
_chemical_formula_structural   LiGdHoOs
_chemical_formula_sum   'Li1 Gd1 Ho1 Os1'
_cell_volume   83.41346738
_cell_formula_units_Z   1
loop_
 _symmetry_equiv_pos_site_id
 _symmetry_equiv_pos_as_xyz
  1  'x, y, z'
loop_
 _atom_site_type_symbol
 _atom_site_label
 _atom_site_symmetry_multiplicity
 _atom_site_fract_x
 _atom_site_fract_y
 _atom_site_fract_z
 _atom_site_occupancy
  Gd  Gd0  1  0.25000000  0.25000000  0.25000000  1
  Os  Os1  1  0.50000000  0.50000000  0.50000000  1
  Ho  Ho2  1  0.75000000  0.75000000  0.75000000  1
  Li  Li3  1  0.00000000  0.00000000  0.00000000  1
