# generated using pymatgen
data_Yb3Co2Sn7
_symmetry_space_group_name_H-M   'P 1'
_cell_length_a   4.57532890
_cell_length_b   4.61554137
_cell_length_c   13.75935647
_cell_angle_alpha   80.22118668
_cell_angle_beta   90.00000000
_cell_angle_gamma   90.00000000
_symmetry_Int_Tables_number   1
_chemical_formula_structural   Yb3Co2Sn7
_chemical_formula_sum   'Yb3 Co2 Sn7'
_cell_volume   286.34317559
_cell_formula_units_Z   1
loop_
 _symmetry_equiv_pos_site_id
 _symmetry_equiv_pos_as_xyz
  1  'x, y, z'
loop_
 _atom_site_type_symbol
 _atom_site_label
 _atom_site_symmetry_multiplicity
 _atom_site_fract_x
 _atom_site_fract_y
 _atom_site_fract_z
 _atom_site_occupancy
  Yb  Yb0  1  0.50000000  0.50000000  0.00000000  1
  Yb  Yb1  1  0.00000000  0.18218886  0.63401801  1
  Yb  Yb2  1  0.00000000  0.81781114  0.36598199  1
  Co  Co3  1  0.50000000  0.62619782  0.74615605  1
  Co  Co4  1  0.50000000  0.37380218  0.25384395  1
  Sn  Sn5  1  0.50000000  0.71725406  0.56503327  1
  Sn  Sn6  1  0.50000000  0.28274594  0.43496673  1
  Sn  Sn7  1  0.00000000  0.58690286  0.82417300  1
  Sn  Sn8  1  0.00000000  0.00000000  0.00000000  1
  Sn  Sn9  1  0.00000000  0.41309714  0.17582700  1
  Sn  Sn10  1  0.50000000  0.91175431  0.17860158  1
  Sn  Sn11  1  0.50000000  0.08824569  0.82139842  1
