# generated using pymatgen
data_MnGaIr
_symmetry_space_group_name_H-M   'P 1'
_cell_length_a   2.91351449
_cell_length_b   7.23123732
_cell_length_c   7.23123732
_cell_angle_alpha   120.00000000
_cell_angle_beta   90.00000000
_cell_angle_gamma   90.00000000
_symmetry_Int_Tables_number   1
_chemical_formula_structural   MnGaIr
_chemical_formula_sum   'Mn3 Ga3 Ir3'
_cell_volume   131.93895608
_cell_formula_units_Z   3
loop_
 _symmetry_equiv_pos_site_id
 _symmetry_equiv_pos_as_xyz
  1  'x, y, z'
loop_
 _atom_site_type_symbol
 _atom_site_label
 _atom_site_symmetry_multiplicity
 _atom_site_fract_x
 _atom_site_fract_y
 _atom_site_fract_z
 _atom_site_occupancy
  Mn  Mn0  1  0.50000000  -0.00000000  0.61903699  1
  Mn  Mn1  1  0.50000000  0.61903699  0.00000000  1
  Mn  Mn2  1  0.50000000  0.38096301  0.38096301  1
  Ir  Ir3  1  0.50000000  0.00000000  0.00000000  1
  Ir  Ir4  1  0.00000000  0.66666667  0.33333333  1
  Ir  Ir5  1  0.00000000  0.33333333  0.66666667  1
  Ga  Ga6  1  0.00000000  0.00000000  0.29188259  1
  Ga  Ga7  1  0.00000000  0.29188259  0.00000000  1
  Ga  Ga8  1  0.00000000  0.70811741  0.70811741  1
