# generated using pymatgen
data_NaHg3PdSe4
_symmetry_space_group_name_H-M   'P 1'
_cell_length_a   6.37583134
_cell_length_b   6.37583134
_cell_length_c   6.37583134
_cell_angle_alpha   90.00000000
_cell_angle_beta   90.00000000
_cell_angle_gamma   90.00000000
_symmetry_Int_Tables_number   1
_chemical_formula_structural   NaHg3PdSe4
_chemical_formula_sum   'Na1 Hg3 Pd1 Se4'
_cell_volume   259.18535637
_cell_formula_units_Z   1
loop_
 _symmetry_equiv_pos_site_id
 _symmetry_equiv_pos_as_xyz
  1  'x, y, z'
loop_
 _atom_site_type_symbol
 _atom_site_label
 _atom_site_symmetry_multiplicity
 _atom_site_fract_x
 _atom_site_fract_y
 _atom_site_fract_z
 _atom_site_occupancy
  Hg  Hg0  1  0.50000068  0.50000068  0.00000000  1
  Hg  Hg1  1  0.50000068  0.00000000  0.50000068  1
  Hg  Hg2  1  0.00000000  0.50000068  0.50000068  1
  Na  Na3  1  0.00000000  0.00000000  0.00000000  1
  Pd  Pd4  1  0.50000068  0.50000068  0.50000068  1
  Se  Se5  1  0.25466953  0.25466953  0.25466953  1
  Se  Se6  1  0.74533026  0.74533026  0.25466953  1
  Se  Se7  1  0.74533026  0.25466953  0.74533026  1
  Se  Se8  1  0.25466953  0.74533026  0.74533026  1
