# generated using pymatgen
data_FeRh2Pb
_symmetry_space_group_name_H-M   'P 1'
_cell_length_a   8.69614211
_cell_length_b   8.69614212
_cell_length_c   8.69614212
_cell_angle_alpha   20.20949884
_cell_angle_beta   20.20949890
_cell_angle_gamma   20.20949889
_symmetry_Int_Tables_number   1
_chemical_formula_structural   FeRh2Pb
_chemical_formula_sum   'Fe1 Rh2 Pb1'
_cell_volume   68.67024772
_cell_formula_units_Z   1
loop_
 _symmetry_equiv_pos_site_id
 _symmetry_equiv_pos_as_xyz
  1  'x, y, z'
loop_
 _atom_site_type_symbol
 _atom_site_label
 _atom_site_symmetry_multiplicity
 _atom_site_fract_x
 _atom_site_fract_y
 _atom_site_fract_z
 _atom_site_occupancy
  Fe  Fe0  1  0.50973732  0.50973732  0.50973732  1
  Pb  Pb1  1  0.74944656  0.74944656  0.74944656  1
  Rh  Rh2  1  0.99542656  0.99542656  0.99542656  1
  Rh  Rh3  1  0.24538956  0.24538956  0.24538956  1
