# generated using pymatgen
data_CuHPbF6
_symmetry_space_group_name_H-M   'P 1'
_cell_length_a   5.91376829
_cell_length_b   5.86001459
_cell_length_c   5.07092843
_cell_angle_alpha   95.44571847
_cell_angle_beta   95.66752192
_cell_angle_gamma   44.15550335
_symmetry_Int_Tables_number   1
_chemical_formula_structural   CuHPbF6
_chemical_formula_sum   'Cu1 H1 Pb1 F6'
_cell_volume   121.74449172
_cell_formula_units_Z   1
loop_
 _symmetry_equiv_pos_site_id
 _symmetry_equiv_pos_as_xyz
  1  'x, y, z'
loop_
 _atom_site_type_symbol
 _atom_site_label
 _atom_site_symmetry_multiplicity
 _atom_site_fract_x
 _atom_site_fract_y
 _atom_site_fract_z
 _atom_site_occupancy
  Cu  Cu0  1  0.27770938  0.38823436  0.49888743  1
  H  H1  1  0.77815442  0.39020425  0.50013711  1
  Pb  Pb2  1  0.27572376  0.88966188  0.99713365  1
  F  F3  1  0.81626055  0.41417631  0.29232989  1
  F  F4  1  0.39623704  0.04357387  0.63856485  1
  F  F5  1  0.73952386  0.36500149  0.71498383  1
  F  F6  1  0.09393952  0.62922056  0.79824481  1
  F  F7  1  0.16117728  0.73229609  0.36018756  1
  F  F8  1  0.46103768  0.14768127  0.19944185  1
