# generated using pymatgen
data_MoPt4
_symmetry_space_group_name_H-M   'P 1'
_cell_length_a   4.84750969
_cell_length_b   4.84750969
_cell_length_c   4.84750969
_cell_angle_alpha   99.45505347
_cell_angle_beta   99.45505347
_cell_angle_gamma   132.17925341
_symmetry_Int_Tables_number   1
_chemical_formula_structural   MoPt4
_chemical_formula_sum   'Mo1 Pt4'
_cell_volume   77.16747012
_cell_formula_units_Z   1
loop_
 _symmetry_equiv_pos_site_id
 _symmetry_equiv_pos_as_xyz
  1  'x, y, z'
loop_
 _atom_site_type_symbol
 _atom_site_label
 _atom_site_symmetry_multiplicity
 _atom_site_fract_x
 _atom_site_fract_y
 _atom_site_fract_z
 _atom_site_occupancy
  Mo  Mo0  1  0.00000000  0.00000000  0.00000000  1
  Pt  Pt1  1  0.39752811  0.79476055  0.19228872  1
  Pt  Pt2  1  0.79476055  0.60247183  0.39723244  1
  Pt  Pt3  1  0.20523891  0.39752763  0.60276655  1
  Pt  Pt4  1  0.60247135  0.20523891  0.80771027  1
