# generated using pymatgen
data_Er3Al3Zn8
_symmetry_space_group_name_H-M   'P 1'
_cell_length_a   8.12950871
_cell_length_b   8.12950871
_cell_length_c   8.12950871
_cell_angle_alpha   150.06135489
_cell_angle_beta   108.13117627
_cell_angle_gamma   79.76104099
_symmetry_Int_Tables_number   1
_chemical_formula_structural   Er3Al3Zn8
_chemical_formula_sum   'Er3 Al3 Zn8'
_cell_volume   249.99208011
_cell_formula_units_Z   1
loop_
 _symmetry_equiv_pos_site_id
 _symmetry_equiv_pos_as_xyz
  1  'x, y, z'
loop_
 _atom_site_type_symbol
 _atom_site_label
 _atom_site_symmetry_multiplicity
 _atom_site_fract_x
 _atom_site_fract_y
 _atom_site_fract_z
 _atom_site_occupancy
  Al  Al0  1  0.20613207  0.00000000  0.20613207  1
  Al  Al1  1  0.00000000  0.50000072  0.50000072  1
  Al  Al2  1  0.79386826  0.00000000  0.79386826  1
  Er  Er3  1  0.19554783  0.19554783  -0.00000000  1
  Er  Er4  1  0.50000013  0.50000013  -0.00000000  1
  Er  Er5  1  0.80445244  0.80445244  -0.00000000  1
  Zn  Zn6  1  0.63610049  0.35932413  0.27677636  1
  Zn  Zn7  1  0.91745251  0.64067614  0.27677636  1
  Zn  Zn8  1  0.53089176  0.16144159  0.36945017  1
  Zn  Zn9  1  0.20800908  0.83855927  0.36945125  1
  Zn  Zn10  1  0.79199175  0.16144159  0.63055016  1
  Zn  Zn11  1  0.46910907  0.83855927  0.63055124  1
  Zn  Zn12  1  0.08254832  0.35932471  0.72322505  1
  Zn  Zn13  1  0.36389928  0.64067673  0.72322400  1
