# generated using pymatgen
data_LiHoTmTe3
_symmetry_space_group_name_H-M   'P 1'
_cell_length_a   4.18502079
_cell_length_b   8.78578989
_cell_length_c   9.42463663
_cell_angle_alpha   103.97861344
_cell_angle_beta   90.00000000
_cell_angle_gamma   90.00000000
_symmetry_Int_Tables_number   1
_chemical_formula_structural   LiHoTmTe3
_chemical_formula_sum   'Li2 Ho2 Tm2 Te6'
_cell_volume   336.26955715
_cell_formula_units_Z   2
loop_
 _symmetry_equiv_pos_site_id
 _symmetry_equiv_pos_as_xyz
  1  'x, y, z'
loop_
 _atom_site_type_symbol
 _atom_site_label
 _atom_site_symmetry_multiplicity
 _atom_site_fract_x
 _atom_site_fract_y
 _atom_site_fract_z
 _atom_site_occupancy
  Li  Li0  1  0.25000000  0.08539435  0.58499529  1
  Li  Li1  1  0.75000000  0.91460565  0.41500471  1
  Ho  Ho2  1  0.25000000  0.18617792  0.23239596  1
  Ho  Ho3  1  0.75000000  0.81382208  0.76760404  1
  Tm  Tm4  1  0.25000000  0.66739548  0.16537712  1
  Tm  Tm5  1  0.75000000  0.33260452  0.83462288  1
  Te  Te6  1  0.75000000  0.90993535  0.12250363  1
  Te  Te7  1  0.25000000  0.09006465  0.87749637  1
  Te  Te8  1  0.25000000  0.76081987  0.50413576  1
  Te  Te9  1  0.75000000  0.23918013  0.49586424  1
  Te  Te10  1  0.75000000  0.42207841  0.16964443  1
  Te  Te11  1  0.25000000  0.57792159  0.83035557  1
