# generated using pymatgen
data_ReNiSb4
_symmetry_space_group_name_H-M   'P 1'
_cell_length_a   5.97209388
_cell_length_b   5.97209388
_cell_length_c   5.97209388
_cell_angle_alpha   60.00000000
_cell_angle_beta   60.00000000
_cell_angle_gamma   60.00000000
_symmetry_Int_Tables_number   1
_chemical_formula_structural   ReNiSb4
_chemical_formula_sum   'Re1 Ni1 Sb4'
_cell_volume   150.61383969
_cell_formula_units_Z   1
loop_
 _symmetry_equiv_pos_site_id
 _symmetry_equiv_pos_as_xyz
  1  'x, y, z'
loop_
 _atom_site_type_symbol
 _atom_site_label
 _atom_site_symmetry_multiplicity
 _atom_site_fract_x
 _atom_site_fract_y
 _atom_site_fract_z
 _atom_site_occupancy
  Re  Re0  1  0.00000000  0.00000000  0.00000000  1
  Ni  Ni1  1  0.75000000  0.75000000  0.75000000  1
  Sb  Sb2  1  0.87424210  0.37525263  0.37525263  1
  Sb  Sb3  1  0.37525263  0.37525263  0.87424210  1
  Sb  Sb4  1  0.37525263  0.87424210  0.37525263  1
  Sb  Sb5  1  0.37525263  0.37525263  0.37525263  1
