# generated using pymatgen
data_AgSe2
_symmetry_space_group_name_H-M   'P 1'
_cell_length_a   5.98831688
_cell_length_b   5.98831688
_cell_length_c   4.36614007
_cell_angle_alpha   90.00000000
_cell_angle_beta   90.00000000
_cell_angle_gamma   112.94384917
_symmetry_Int_Tables_number   1
_chemical_formula_structural   AgSe2
_chemical_formula_sum   'Ag2 Se4'
_cell_volume   144.18288487
_cell_formula_units_Z   2
loop_
 _symmetry_equiv_pos_site_id
 _symmetry_equiv_pos_as_xyz
  1  'x, y, z'
loop_
 _atom_site_type_symbol
 _atom_site_label
 _atom_site_symmetry_multiplicity
 _atom_site_fract_x
 _atom_site_fract_y
 _atom_site_fract_z
 _atom_site_occupancy
  Ag  Ag0  1  0.14520120  0.14520120  0.25000000  1
  Ag  Ag1  1  0.85479880  0.85479880  0.75000000  1
  Se  Se2  1  0.81502910  0.56987331  0.25000000  1
  Se  Se3  1  0.18497090  0.43012669  0.75000000  1
  Se  Se4  1  0.56987331  0.81502910  0.25000000  1
  Se  Se5  1  0.43012669  0.18497090  0.75000000  1
