# generated using pymatgen
data_TbNb2CoN4
_symmetry_space_group_name_H-M   'P 1'
_cell_length_a   3.14497313
_cell_length_b   5.56380504
_cell_length_c   10.82494983
_cell_angle_alpha   90.00000000
_cell_angle_beta   90.00000000
_cell_angle_gamma   106.41710905
_symmetry_Int_Tables_number   1
_chemical_formula_structural   TbNb2CoN4
_chemical_formula_sum   'Tb2 Nb4 Co2 N8'
_cell_volume   181.69263244
_cell_formula_units_Z   2
loop_
 _symmetry_equiv_pos_site_id
 _symmetry_equiv_pos_as_xyz
  1  'x, y, z'
loop_
 _atom_site_type_symbol
 _atom_site_label
 _atom_site_symmetry_multiplicity
 _atom_site_fract_x
 _atom_site_fract_y
 _atom_site_fract_z
 _atom_site_occupancy
  Tb  Tb0  1  0.10947214  0.21894428  0.75000000  1
  Tb  Tb1  1  0.89052786  0.78105572  0.25000000  1
  Nb  Nb2  1  0.36906481  0.73812962  0.55797477  1
  Nb  Nb3  1  0.63093519  0.26187038  0.05797477  1
  Nb  Nb4  1  0.63093519  0.26187038  0.44202523  1
  Nb  Nb5  1  0.36906481  0.73812962  0.94202523  1
  Co  Co6  1  0.84327146  0.68654292  0.75000000  1
  Co  Co7  1  0.15672854  0.31345708  0.25000000  1
  N  N8  1  0.27394633  0.54789266  0.11437361  1
  N  N9  1  0.72605367  0.45210734  0.61437361  1
  N  N10  1  0.72605367  0.45210734  0.88562639  1
  N  N11  1  0.27394633  0.54789266  0.38562639  1
  N  N12  1  0.00000000  0.00000000  0.50000000  1
  N  N13  1  0.00000000  0.00000000  0.00000000  1
  N  N14  1  0.44902612  0.89805223  0.75000000  1
  N  N15  1  0.55097388  0.10194777  0.25000000  1
