# generated using pymatgen
data_AlI3
_symmetry_space_group_name_H-M   'P 1'
_cell_length_a   8.94981650
_cell_length_b   4.39312000
_cell_length_c   18.62673283
_cell_angle_alpha   90.00000000
_cell_angle_beta   90.00000000
_cell_angle_gamma   117.56138782
_symmetry_Int_Tables_number   1
_chemical_formula_structural   AlI3
_chemical_formula_sum   'Al1 I3'
_cell_volume   649.24746737
_cell_formula_units_Z   1
loop_
 _symmetry_equiv_pos_site_id
 _symmetry_equiv_pos_as_xyz
  1  'x, y, z'
loop_
 _atom_site_type_symbol
 _atom_site_label
 _atom_site_symmetry_multiplicity
 _atom_site_fract_x
 _atom_site_fract_y
 _atom_site_fract_z
 _atom_site_occupancy
  I  I0  1  0.23367563  0.49333767  0.43582656  1
  I  I1  1  0.76632342  0.50666233  0.43582662  1
  I  I2  1  0.00000000  0.00000000  0.63053235  1
  Al  Al3  1  0.00000000  0.00000000  0.49781447  1
