# generated using pymatgen
data_NpAlCo
_symmetry_space_group_name_H-M   'P 1'
_cell_length_a   4.04172518
_cell_length_b   6.39874289
_cell_length_c   6.39874289
_cell_angle_alpha   120.00000006
_cell_angle_beta   90.00000000
_cell_angle_gamma   90.00000000
_symmetry_Int_Tables_number   1
_chemical_formula_structural   NpAlCo
_chemical_formula_sum   'Np3 Al3 Co3'
_cell_volume   143.31337752
_cell_formula_units_Z   3
loop_
 _symmetry_equiv_pos_site_id
 _symmetry_equiv_pos_as_xyz
  1  'x, y, z'
loop_
 _atom_site_type_symbol
 _atom_site_label
 _atom_site_symmetry_multiplicity
 _atom_site_fract_x
 _atom_site_fract_y
 _atom_site_fract_z
 _atom_site_occupancy
  Np  Np0  1  0.50000000  0.42793334  0.42793334  1
  Np  Np1  1  0.50000000  0.57206666  0.00000000  1
  Np  Np2  1  0.50000000  0.00000000  0.57206666  1
  Co  Co3  1  0.50000000  0.00000000  0.00000000  1
  Co  Co4  1  0.00000000  0.66666667  0.33333333  1
  Co  Co5  1  0.00000000  0.33333333  0.66666667  1
  Al  Al6  1  0.00000000  0.76268755  0.76268755  1
  Al  Al7  1  0.00000000  0.23731245  0.00000000  1
  Al  Al8  1  0.00000000  0.00000000  0.23731245  1
