# generated using pymatgen
data_Ca2InNi2
_symmetry_space_group_name_H-M   'P 1'
_cell_length_a   5.69715517
_cell_length_b   5.65102885
_cell_length_c   7.89616665
_cell_angle_alpha   101.61348191
_cell_angle_beta   90.00000000
_cell_angle_gamma   120.27038142
_symmetry_Int_Tables_number   1
_chemical_formula_structural   Ca2InNi2
_chemical_formula_sum   'Ca4 In2 Ni4'
_cell_volume   213.50720544
_cell_formula_units_Z   2
loop_
 _symmetry_equiv_pos_site_id
 _symmetry_equiv_pos_as_xyz
  1  'x, y, z'
loop_
 _atom_site_type_symbol
 _atom_site_label
 _atom_site_symmetry_multiplicity
 _atom_site_fract_x
 _atom_site_fract_y
 _atom_site_fract_z
 _atom_site_occupancy
  Ni  Ni0  1  0.00295804  0.71215864  0.99603230  1
  Ni  Ni1  1  0.29079940  0.28784136  0.50396770  1
  Ni  Ni2  1  0.99704196  0.28784136  0.00396770  1
  Ni  Ni3  1  0.70920060  0.71215864  0.49603230  1
  Ca  Ca4  1  0.21194222  0.70418412  0.35277760  1
  Ca  Ca5  1  0.50775811  0.29581588  0.14722240  1
  Ca  Ca6  1  0.78805778  0.29581588  0.64722240  1
  Ca  Ca7  1  0.49224189  0.70418412  0.85277760  1
  In  In8  1  0.86900476  0.00000000  0.25000000  1
  In  In9  1  0.13099524  0.00000000  0.75000000  1
