# generated using pymatgen
data_YMnN2
_symmetry_space_group_name_H-M   'P 1'
_cell_length_a   4.66061252
_cell_length_b   4.66061252
_cell_length_c   5.88807482
_cell_angle_alpha   66.68617567
_cell_angle_beta   66.68617567
_cell_angle_gamma   90.00000000
_symmetry_Int_Tables_number   1
_chemical_formula_structural   YMnN2
_chemical_formula_sum   'Y2 Mn2 N4'
_cell_volume   105.98745894
_cell_formula_units_Z   2
loop_
 _symmetry_equiv_pos_site_id
 _symmetry_equiv_pos_as_xyz
  1  'x, y, z'
loop_
 _atom_site_type_symbol
 _atom_site_label
 _atom_site_symmetry_multiplicity
 _atom_site_fract_x
 _atom_site_fract_y
 _atom_site_fract_z
 _atom_site_occupancy
  Y  Y0  1  0.00000000  0.00000000  0.00000000  1
  Y  Y1  1  0.75000000  0.25000000  0.50000000  1
  Mn  Mn2  1  0.50000000  0.50000000  0.00000000  1
  Mn  Mn3  1  0.25000000  0.75000000  0.50000000  1
  N  N4  1  0.53834026  0.12500000  0.25000000  1
  N  N5  1  0.21165974  0.62500000  0.25000000  1
  N  N6  1  0.37500000  0.46165974  0.75000000  1
  N  N7  1  0.87500000  0.78834026  0.75000000  1
