# generated using pymatgen
data_ZnTc2Mo
_symmetry_space_group_name_H-M   'P 1'
_cell_length_a   9.04485909
_cell_length_b   9.04485909
_cell_length_c   9.04485909
_cell_angle_alpha   17.71096040
_cell_angle_beta   17.71096040
_cell_angle_gamma   17.71096041
_symmetry_Int_Tables_number   1
_chemical_formula_structural   ZnTc2Mo
_chemical_formula_sum   'Zn1 Tc2 Mo1'
_cell_volume   59.77808495
_cell_formula_units_Z   1
loop_
 _symmetry_equiv_pos_site_id
 _symmetry_equiv_pos_as_xyz
  1  'x, y, z'
loop_
 _atom_site_type_symbol
 _atom_site_label
 _atom_site_symmetry_multiplicity
 _atom_site_fract_x
 _atom_site_fract_y
 _atom_site_fract_z
 _atom_site_occupancy
  Mo  Mo0  1  0.75000000  0.75000000  0.75000000  1
  Tc  Tc1  1  0.00055319  0.00055319  0.00055319  1
  Tc  Tc2  1  0.49944681  0.49944681  0.49944681  1
  Zn  Zn3  1  0.25000000  0.25000000  0.25000000  1
