# generated using pymatgen
data_Sc2TePt
_symmetry_space_group_name_H-M   'P 1'
_cell_length_a   5.80677464
_cell_length_b   5.80677464
_cell_length_c   5.80677463
_cell_angle_alpha   139.57111928
_cell_angle_beta   139.57111926
_cell_angle_gamma   58.50501137
_symmetry_Int_Tables_number   1
_chemical_formula_structural   Sc2TePt
_chemical_formula_sum   'Sc2 Te1 Pt1'
_cell_volume   81.58326776
_cell_formula_units_Z   1
loop_
 _symmetry_equiv_pos_site_id
 _symmetry_equiv_pos_as_xyz
  1  'x, y, z'
loop_
 _atom_site_type_symbol
 _atom_site_label
 _atom_site_symmetry_multiplicity
 _atom_site_fract_x
 _atom_site_fract_y
 _atom_site_fract_z
 _atom_site_occupancy
  Pt  Pt0  1  0.75000000  0.25000000  0.50000000  1
  Sc  Sc1  1  0.00000000  0.00000000  0.00000000  1
  Sc  Sc2  1  0.25000000  0.75000000  0.50000000  1
  Te  Te3  1  0.50000000  0.50000000  0.00000000  1
