# generated using pymatgen
data_Cu4Pd8Pt3
_symmetry_space_group_name_H-M   'P 1'
_cell_length_a   5.17187542
_cell_length_b   7.37252498
_cell_length_c   7.37252498
_cell_angle_alpha   89.40888522
_cell_angle_beta   111.35189950
_cell_angle_gamma   111.35189949
_symmetry_Int_Tables_number   1
_chemical_formula_structural   Cu4Pd8Pt3
_chemical_formula_sum   'Cu4 Pd8 Pt3'
_cell_volume   241.41326068
_cell_formula_units_Z   1
loop_
 _symmetry_equiv_pos_site_id
 _symmetry_equiv_pos_as_xyz
  1  'x, y, z'
loop_
 _atom_site_type_symbol
 _atom_site_label
 _atom_site_symmetry_multiplicity
 _atom_site_fract_x
 _atom_site_fract_y
 _atom_site_fract_z
 _atom_site_occupancy
  Cu  Cu0  1  0.50000000  0.00000000  0.00000000  1
  Cu  Cu1  1  0.00000000  0.50000000  -0.00000000  1
  Cu  Cu2  1  0.00000000  0.00000000  0.00000000  1
  Cu  Cu3  1  0.00000000  -0.00000000  0.50000000  1
  Pd  Pd4  1  0.50245389  0.24794480  0.24794480  1
  Pd  Pd5  1  0.00000000  0.63851420  0.36148580  1
  Pd  Pd6  1  0.99390296  0.24460626  0.24460626  1
  Pd  Pd7  1  0.50000000  0.76053338  0.23946662  1
  Pd  Pd8  1  0.50000000  0.23946662  0.76053338  1
  Pd  Pd9  1  0.00609704  0.75539374  0.75539374  1
  Pd  Pd10  1  0.00000000  0.36148580  0.63851420  1
  Pd  Pd11  1  0.49754611  0.75205520  0.75205520  1
  Pt  Pt12  1  0.50000000  0.50000000  0.00000000  1
  Pt  Pt13  1  0.50000000  0.00000000  0.50000000  1
  Pt  Pt14  1  0.50000000  0.50000000  0.50000000  1
