# generated using pymatgen
data_SmU2MnC4
_symmetry_space_group_name_H-M   'P 1'
_cell_length_a   3.54201299
_cell_length_b   5.90446584
_cell_length_c   11.61745678
_cell_angle_alpha   90.00000000
_cell_angle_beta   90.00000000
_cell_angle_gamma   107.45421320
_symmetry_Int_Tables_number   1
_chemical_formula_structural   SmU2MnC4
_chemical_formula_sum   'Sm2 U4 Mn2 C8'
_cell_volume   231.77714313
_cell_formula_units_Z   2
loop_
 _symmetry_equiv_pos_site_id
 _symmetry_equiv_pos_as_xyz
  1  'x, y, z'
loop_
 _atom_site_type_symbol
 _atom_site_label
 _atom_site_symmetry_multiplicity
 _atom_site_fract_x
 _atom_site_fract_y
 _atom_site_fract_z
 _atom_site_occupancy
  Sm  Sm0  1  0.10687136  0.21374271  0.75000000  1
  Sm  Sm1  1  0.89312864  0.78625729  0.25000000  1
  U  U2  1  0.36959894  0.73919788  0.54919280  1
  U  U3  1  0.63040106  0.26080212  0.04919280  1
  U  U4  1  0.63040106  0.26080212  0.45080720  1
  U  U5  1  0.36959894  0.73919788  0.95080720  1
  Mn  Mn6  1  0.84248353  0.68496705  0.75000000  1
  Mn  Mn7  1  0.15751647  0.31503295  0.25000000  1
  C  C8  1  0.25712448  0.51424896  0.12266455  1
  C  C9  1  0.74287552  0.48575104  0.62266455  1
  C  C10  1  0.74287552  0.48575104  0.87733545  1
  C  C11  1  0.25712448  0.51424896  0.37733545  1
  C  C12  1  0.00000000  0.00000000  0.50000000  1
  C  C13  1  0.00000000  0.00000000  0.00000000  1
  C  C14  1  0.42016079  0.84032158  0.75000000  1
  C  C15  1  0.57983921  0.15967842  0.25000000  1
