# generated using pymatgen
data_GdThTePb
_symmetry_space_group_name_H-M   'P 1'
_cell_length_a   5.48008322
_cell_length_b   5.48008322
_cell_length_c   5.48008322
_cell_angle_alpha   59.99999999
_cell_angle_beta   59.99999999
_cell_angle_gamma   59.99999998
_symmetry_Int_Tables_number   1
_chemical_formula_structural   GdThTePb
_chemical_formula_sum   'Gd1 Th1 Te1 Pb1'
_cell_volume   116.37145455
_cell_formula_units_Z   1
loop_
 _symmetry_equiv_pos_site_id
 _symmetry_equiv_pos_as_xyz
  1  'x, y, z'
loop_
 _atom_site_type_symbol
 _atom_site_label
 _atom_site_symmetry_multiplicity
 _atom_site_fract_x
 _atom_site_fract_y
 _atom_site_fract_z
 _atom_site_occupancy
  Pb  Pb0  1  0.50000000  0.50000000  0.50000000  1
  Gd  Gd1  1  0.25000000  0.25000000  0.25000000  1
  Te  Te2  1  0.00000000  0.00000000  0.00000000  1
  Th  Th3  1  0.75000000  0.75000000  0.75000000  1
