# generated using pymatgen
data_ZrNi
_symmetry_space_group_name_H-M   'P 1'
_cell_length_a   5.76623718
_cell_length_b   5.76617100
_cell_length_c   4.62712300
_cell_angle_alpha   90.00000000
_cell_angle_beta   90.00000000
_cell_angle_gamma   120.00013683
_symmetry_Int_Tables_number   1
_chemical_formula_structural   ZrNi
_chemical_formula_sum   'Zr4 Ni4'
_cell_volume   133.23585003
_cell_formula_units_Z   4
loop_
 _symmetry_equiv_pos_site_id
 _symmetry_equiv_pos_as_xyz
  1  'x, y, z'
loop_
 _atom_site_type_symbol
 _atom_site_label
 _atom_site_symmetry_multiplicity
 _atom_site_fract_x
 _atom_site_fract_y
 _atom_site_fract_z
 _atom_site_occupancy
  Ni  Ni0  1  0.00000000  0.00000000  0.00000000  1
  Ni  Ni1  1  0.29031173  0.14512578  0.49999968  1
  Ni  Ni2  1  0.85486950  0.14512943  0.49999968  1
  Ni  Ni3  1  0.85487444  0.70969025  0.49999968  1
  Zr  Zr4  1  0.50528730  0.01059418  0.00000000  1
  Zr  Zr5  1  0.50530384  0.49469666  0.00000000  1
  Zr  Zr6  1  0.98940645  0.49471402  0.00000000  1
  Zr  Zr7  1  0.33336457  0.66663928  0.49999968  1
