# generated using pymatgen
data_PaSi2Os
_symmetry_space_group_name_H-M   'P 1'
_cell_length_a   4.35253350
_cell_length_b   4.12683987
_cell_length_c   8.14439934
_cell_angle_alpha   90.00000000
_cell_angle_beta   103.28998740
_cell_angle_gamma   90.00000000
_symmetry_Int_Tables_number   1
_chemical_formula_structural   PaSi2Os
_chemical_formula_sum   'Pa2 Si4 Os2'
_cell_volume   142.37358028
_cell_formula_units_Z   2
loop_
 _symmetry_equiv_pos_site_id
 _symmetry_equiv_pos_as_xyz
  1  'x, y, z'
loop_
 _atom_site_type_symbol
 _atom_site_label
 _atom_site_symmetry_multiplicity
 _atom_site_fract_x
 _atom_site_fract_y
 _atom_site_fract_z
 _atom_site_occupancy
  Os  Os0  1  0.39930964  0.25000001  0.11902298  1
  Os  Os1  1  0.60068971  0.75000002  0.88097643  1
  Pa  Pa2  1  0.90712896  0.75000002  0.30362649  1
  Pa  Pa3  1  0.09287040  0.25000001  0.69637292  1
  Si  Si4  1  0.83807511  0.25000001  0.00000000  1
  Si  Si5  1  0.16192638  0.75000002  0.00000000  1
  Si  Si6  1  0.45594565  0.25000001  0.41724467  1
  Si  Si7  1  0.54405425  0.75000002  0.58275601  1
