# generated using pymatgen
data_CeTc2
_symmetry_space_group_name_H-M   'P 1'
_cell_length_a   5.19725271
_cell_length_b   5.19725272
_cell_length_c   9.59126671
_cell_angle_alpha   90.00000000
_cell_angle_beta   90.00000000
_cell_angle_gamma   120.00000003
_symmetry_Int_Tables_number   1
_chemical_formula_structural   CeTc2
_chemical_formula_sum   'Ce4 Tc8'
_cell_volume   224.36456544
_cell_formula_units_Z   4
loop_
 _symmetry_equiv_pos_site_id
 _symmetry_equiv_pos_as_xyz
  1  'x, y, z'
loop_
 _atom_site_type_symbol
 _atom_site_label
 _atom_site_symmetry_multiplicity
 _atom_site_fract_x
 _atom_site_fract_y
 _atom_site_fract_z
 _atom_site_occupancy
  Ce  Ce0  1  0.33333333  0.66666667  0.06021407  1
  Ce  Ce1  1  0.66666667  0.33333333  0.56021407  1
  Ce  Ce2  1  0.66666667  0.33333333  0.93978593  1
  Ce  Ce3  1  0.33333333  0.66666667  0.43978593  1
  Tc  Tc4  1  0.00000000  0.00000000  0.00000000  1
  Tc  Tc5  1  0.00000000  0.00000000  0.50000000  1
  Tc  Tc6  1  0.83071452  0.66142904  0.25000000  1
  Tc  Tc7  1  0.16928548  0.33857096  0.75000000  1
  Tc  Tc8  1  0.33856996  0.16928448  0.25000000  1
  Tc  Tc9  1  0.83071452  0.16928448  0.25000000  1
  Tc  Tc10  1  0.16928548  0.83071552  0.75000000  1
  Tc  Tc11  1  0.66143004  0.83071552  0.75000000  1
