# generated using pymatgen
data_Y3(TlAu)2
_symmetry_space_group_name_H-M   'P 1'
_cell_length_a   4.47748263
_cell_length_b   3.53891066
_cell_length_c   11.37630035
_cell_angle_alpha   90.00000000
_cell_angle_beta   78.65070484
_cell_angle_gamma   90.00000000
_symmetry_Int_Tables_number   1
_chemical_formula_structural   Y3(TlAu)2
_chemical_formula_sum   'Y3 Tl2 Au2'
_cell_volume   176.73725665
_cell_formula_units_Z   1
loop_
 _symmetry_equiv_pos_site_id
 _symmetry_equiv_pos_as_xyz
  1  'x, y, z'
loop_
 _atom_site_type_symbol
 _atom_site_label
 _atom_site_symmetry_multiplicity
 _atom_site_fract_x
 _atom_site_fract_y
 _atom_site_fract_z
 _atom_site_occupancy
  Y  Y0  1  0.83320127  0.00000000  0.33359747  1
  Y  Y1  1  0.00000000  0.00000000  0.00000000  1
  Y  Y2  1  0.16679873  0.00000000  0.66640253  1
  Tl  Tl3  1  0.57867107  0.50000000  0.84265886  1
  Tl  Tl4  1  0.42132893  0.50000000  0.15734114  1
  Au  Au5  1  0.71257054  0.50000000  0.57485892  1
  Au  Au6  1  0.28742946  0.50000000  0.42514108  1
