# generated using pymatgen
data_TlRu
_symmetry_space_group_name_H-M   'P 1'
_cell_length_a   5.30107324
_cell_length_b   5.30107324
_cell_length_c   5.30107324
_cell_angle_alpha   90.00000000
_cell_angle_beta   90.00000000
_cell_angle_gamma   90.00000000
_symmetry_Int_Tables_number   1
_chemical_formula_structural   TlRu
_chemical_formula_sum   'Tl4 Ru4'
_cell_volume   148.96746025
_cell_formula_units_Z   4
loop_
 _symmetry_equiv_pos_site_id
 _symmetry_equiv_pos_as_xyz
  1  'x, y, z'
loop_
 _atom_site_type_symbol
 _atom_site_label
 _atom_site_symmetry_multiplicity
 _atom_site_fract_x
 _atom_site_fract_y
 _atom_site_fract_z
 _atom_site_occupancy
  Tl  Tl0  1  0.40560094  0.90560094  0.59439906  1
  Tl  Tl1  1  0.09439906  0.09439906  0.09439906  1
  Tl  Tl2  1  0.59439906  0.40560094  0.90560094  1
  Tl  Tl3  1  0.90560094  0.59439906  0.40560094  1
  Ru  Ru4  1  0.10620169  0.60620169  0.89379831  1
  Ru  Ru5  1  0.39379831  0.39379831  0.39379831  1
  Ru  Ru6  1  0.89379831  0.10620169  0.60620169  1
  Ru  Ru7  1  0.60620169  0.89379831  0.10620169  1
