# generated using pymatgen
data_K2UO4
_symmetry_space_group_name_H-M   'P 1'
_cell_length_a   7.04450647
_cell_length_b   5.88822423
_cell_length_c   7.02863888
_cell_angle_alpha   90.00000000
_cell_angle_beta   115.96387797
_cell_angle_gamma   90.00000000
_symmetry_Int_Tables_number   1
_chemical_formula_structural   K2UO4
_chemical_formula_sum   'K4 U2 O8'
_cell_volume   262.11976179
_cell_formula_units_Z   2
loop_
 _symmetry_equiv_pos_site_id
 _symmetry_equiv_pos_as_xyz
  1  'x, y, z'
loop_
 _atom_site_type_symbol
 _atom_site_label
 _atom_site_symmetry_multiplicity
 _atom_site_fract_x
 _atom_site_fract_y
 _atom_site_fract_z
 _atom_site_occupancy
  K  K0  1  0.64814327  0.75000000  0.01839644  1
  K  K1  1  0.35185673  0.25000000  0.98160356  1
  K  K2  1  0.98351637  0.25000000  0.35178566  1
  K  K3  1  0.01648363  0.75000000  0.64821434  1
  U  U4  1  0.36081110  0.75000000  0.36130561  1
  U  U5  1  0.63918890  0.25000000  0.63869439  1
  O  O6  1  0.60646479  0.50013384  0.39330680  1
  O  O7  1  0.28023417  0.75000000  0.05454974  1
  O  O8  1  0.71976583  0.25000000  0.94545026  1
  O  O9  1  0.60646479  0.99986616  0.39330680  1
  O  O10  1  0.94536223  0.25000000  0.71916194  1
  O  O11  1  0.39353521  0.00013384  0.60669320  1
  O  O12  1  0.39353521  0.49986616  0.60669320  1
  O  O13  1  0.05463777  0.75000000  0.28083806  1
