# generated using pymatgen
data_TlPtBr6
_symmetry_space_group_name_H-M   'P 1'
_cell_length_a   6.77178262
_cell_length_b   6.77033525
_cell_length_c   7.48015879
_cell_angle_alpha   63.07080996
_cell_angle_beta   63.07123037
_cell_angle_gamma   59.99668965
_symmetry_Int_Tables_number   1
_chemical_formula_structural   TlPtBr6
_chemical_formula_sum   'Tl1 Pt1 Br6'
_cell_volume   253.14448009
_cell_formula_units_Z   1
loop_
 _symmetry_equiv_pos_site_id
 _symmetry_equiv_pos_as_xyz
  1  'x, y, z'
loop_
 _atom_site_type_symbol
 _atom_site_label
 _atom_site_symmetry_multiplicity
 _atom_site_fract_x
 _atom_site_fract_y
 _atom_site_fract_z
 _atom_site_occupancy
  Tl  Tl0  1  0.50000000  0.50000000  0.50000000  1
  Pt  Pt1  1  0.00000000  0.00000000  0.00000000  1
  Br  Br2  1  0.03112014  0.39779773  0.77380909  1
  Br  Br3  1  0.79756581  0.03118260  0.77367331  1
  Br  Br4  1  0.60231264  0.20248443  0.22630706  1
  Br  Br5  1  0.20243419  0.96881740  0.22632669  1
  Br  Br6  1  0.96887986  0.60220227  0.22619091  1
  Br  Br7  1  0.39768736  0.79751557  0.77369294  1
