# generated using pymatgen
data_Hf2Mo3W
_symmetry_space_group_name_H-M   'P 1'
_cell_length_a   5.35346939
_cell_length_b   5.35347023
_cell_length_c   5.37434202
_cell_angle_alpha   89.95078622
_cell_angle_beta   119.86105718
_cell_angle_gamma   120.06768240
_symmetry_Int_Tables_number   1
_chemical_formula_structural   Hf2Mo3W
_chemical_formula_sum   'Hf2 Mo3 W1'
_cell_volume   109.07671028
_cell_formula_units_Z   1
loop_
 _symmetry_equiv_pos_site_id
 _symmetry_equiv_pos_as_xyz
  1  'x, y, z'
loop_
 _atom_site_type_symbol
 _atom_site_label
 _atom_site_symmetry_multiplicity
 _atom_site_fract_x
 _atom_site_fract_y
 _atom_site_fract_z
 _atom_site_occupancy
  Hf  Hf0  1  0.75041073  0.37518510  0.12559583  1
  Hf  Hf1  1  0.24958927  0.62481490  0.87440417  1
  Mo  Mo2  1  0.50000000  0.50000000  0.50000000  1
  Mo  Mo3  1  0.00000000  -0.00000000  0.50000000  1
  Mo  Mo4  1  0.50000000  -0.00000000  0.50000000  1
  W  W5  1  0.00000000  0.00000000  0.00000000  1
