# generated using pymatgen
data_NdY2Mn
_symmetry_space_group_name_H-M   'P 1'
_cell_length_a   3.51361419
_cell_length_b   3.51361419
_cell_length_c   9.11891684
_cell_angle_alpha   90.00000000
_cell_angle_beta   90.00000000
_cell_angle_gamma   90.00000000
_symmetry_Int_Tables_number   1
_chemical_formula_structural   NdY2Mn
_chemical_formula_sum   'Nd1 Y2 Mn1'
_cell_volume   112.57744811
_cell_formula_units_Z   1
loop_
 _symmetry_equiv_pos_site_id
 _symmetry_equiv_pos_as_xyz
  1  'x, y, z'
loop_
 _atom_site_type_symbol
 _atom_site_label
 _atom_site_symmetry_multiplicity
 _atom_site_fract_x
 _atom_site_fract_y
 _atom_site_fract_z
 _atom_site_occupancy
  Y  Y0  1  0.00000000  0.00000000  0.80654152  1
  Y  Y1  1  0.00000000  0.00000000  0.19345848  1
  Mn  Mn2  1  0.50000000  0.50000000  0.00000000  1
  Nd  Nd3  1  0.50000000  0.50000000  0.50000000  1
