# generated using pymatgen
data_Na4Ga2CuAg
_symmetry_space_group_name_H-M   'P 1'
_cell_length_a   4.80454710
_cell_length_b   4.80454710
_cell_length_c   6.85948198
_cell_angle_alpha   90.00000000
_cell_angle_beta   90.00000000
_cell_angle_gamma   90.00000000
_symmetry_Int_Tables_number   1
_chemical_formula_structural   Na4Ga2CuAg
_chemical_formula_sum   'Na4 Ga2 Cu1 Ag1'
_cell_volume   158.34203803
_cell_formula_units_Z   1
loop_
 _symmetry_equiv_pos_site_id
 _symmetry_equiv_pos_as_xyz
  1  'x, y, z'
loop_
 _atom_site_type_symbol
 _atom_site_label
 _atom_site_symmetry_multiplicity
 _atom_site_fract_x
 _atom_site_fract_y
 _atom_site_fract_z
 _atom_site_occupancy
  Ag  Ag0  1  0.00000000  0.00000000  0.00000000  1
  Cu  Cu1  1  0.49999926  0.49999926  0.49999986  1
  Ga  Ga2  1  0.49999926  0.00000000  0.26328665  1
  Ga  Ga3  1  0.00000000  0.49999926  0.73671307  1
  Na  Na4  1  0.49999926  0.49999926  0.00000000  1
  Na  Na5  1  0.00000000  0.49999926  0.25646980  1
  Na  Na6  1  0.00000000  0.00000000  0.49999986  1
  Na  Na7  1  0.49999926  0.00000000  0.74352991  1
