# generated using pymatgen
data_Nd6Hg5
_symmetry_space_group_name_H-M   'P 1'
_cell_length_a   5.36337839
_cell_length_b   7.68655830
_cell_length_c   9.26845192
_cell_angle_alpha   114.49951080
_cell_angle_beta   106.82011969
_cell_angle_gamma   89.99546108
_symmetry_Int_Tables_number   1
_chemical_formula_structural   Nd6Hg5
_chemical_formula_sum   'Nd6 Hg5'
_cell_volume   329.65354201
_cell_formula_units_Z   1
loop_
 _symmetry_equiv_pos_site_id
 _symmetry_equiv_pos_as_xyz
  1  'x, y, z'
loop_
 _atom_site_type_symbol
 _atom_site_label
 _atom_site_symmetry_multiplicity
 _atom_site_fract_x
 _atom_site_fract_y
 _atom_site_fract_z
 _atom_site_occupancy
  Nd  Nd0  1  0.49995082  0.75391552  1.00000000  1
  Nd  Nd1  1  0.50004918  0.24608448  0.00000000  1
  Nd  Nd2  1  0.83665274  0.08302197  0.67327122  1
  Nd  Nd3  1  0.83661847  0.59024924  0.67327122  1
  Nd  Nd4  1  0.16334726  0.91697803  0.32672878  1
  Nd  Nd5  1  0.16338153  0.40975076  0.32672878  1
  Hg  Hg6  1  0.00000000  0.50000000  0.00000000  1
  Hg  Hg7  1  0.66783035  0.66783035  0.33566171  1
  Hg  Hg8  1  0.33216965  0.33216965  0.66433829  1
  Hg  Hg9  1  0.33204896  0.83204896  0.66409792  1
  Hg  Hg10  1  0.66795104  0.16795104  0.33590208  1
