# generated using pymatgen
data_Na2HfSiO5
_symmetry_space_group_name_H-M   'P 1'
_cell_length_a   13.71601034
_cell_length_b   5.42200941
_cell_length_c   13.58214969
_cell_angle_alpha   90.00000000
_cell_angle_beta   119.13398402
_cell_angle_gamma   90.00000000
_symmetry_Int_Tables_number   1
_chemical_formula_structural   Na2HfSiO5
_chemical_formula_sum   'Na16 Hf8 Si8 O40'
_cell_volume   882.28997162
_cell_formula_units_Z   8
loop_
 _symmetry_equiv_pos_site_id
 _symmetry_equiv_pos_as_xyz
  1  'x, y, z'
loop_
 _atom_site_type_symbol
 _atom_site_label
 _atom_site_symmetry_multiplicity
 _atom_site_fract_x
 _atom_site_fract_y
 _atom_site_fract_z
 _atom_site_occupancy
  Hf  Hf0  1  0.43339487  0.23602504  0.12871777  1
  Hf  Hf1  1  0.06177545  0.73819496  0.19038780  1
  Hf  Hf2  1  0.93822434  0.23819398  0.30961198  1
  Hf  Hf3  1  0.56660492  0.73602417  0.37128201  1
  Hf  Hf4  1  0.43339469  0.26397593  0.62871756  1
  Hf  Hf5  1  0.06177527  0.76180428  0.69038759  1
  Hf  Hf6  1  0.93822530  0.26180515  0.80961261  1
  Hf  Hf7  1  0.56660547  0.76397507  0.87128180  1
  Na  Na8  1  0.91563502  0.26610614  0.06800275  1
  Na  Na9  1  0.57552739  0.76421114  0.14347782  1
  Na  Na10  1  0.81760262  0.76373715  0.15259632  1
  Na  Na11  1  0.31883663  0.73663834  0.17481942  1
  Na  Na12  1  0.68116357  0.23663921  0.32518121  1
  Na  Na13  1  0.18239718  0.26373801  0.34740346  1
  Na  Na14  1  0.42447281  0.26421201  0.35652281  1
  Na  Na15  1  0.08436478  0.76610527  0.43199704  1
  Na  Na16  1  0.91563484  0.23389484  0.56800253  1
  Na  Na17  1  0.57552721  0.73578810  0.64347760  1
  Na  Na18  1  0.81760357  0.73626209  0.65259695  1
  Na  Na19  1  0.31883645  0.76336090  0.67481920  1
  Na  Na20  1  0.68116339  0.26336177  0.82518099  1
  Na  Na21  1  0.18239700  0.23626296  0.84740324  1
  Na  Na22  1  0.42447263  0.23578712  0.85652259  1
  Na  Na23  1  0.08436573  0.73389397  0.93199766  1
  O  O24  1  0.63841143  0.57141177  0.02905818  1
  O  O25  1  0.37114915  0.90203827  0.04108807  1
  O  O26  1  0.90569993  0.71591170  0.04359907  1
  O  O27  1  0.14049976  0.92676896  0.10909250  1
  O  O28  1  0.58449490  0.19890781  0.12461790  1
  O  O29  1  0.29263987  0.27936691  0.14655862  1
  O  O30  1  0.11061913  0.40097496  0.15308436  1
  O  O31  1  0.79280397  0.24288597  0.15545629  1
  O  O32  1  0.49770796  0.52828200  0.22911659  1
  O  O33  1  0.00882217  0.03733302  0.23508518  1
  O  O34  1  0.99117763  0.53733215  0.26491461  1
  O  O35  1  0.50229224  0.02828287  0.27088404  1
  O  O36  1  0.20719623  0.74288694  0.34454434  1
  O  O37  1  0.88938067  0.90097409  0.34691542  1
  O  O38  1  0.70735992  0.77936604  0.35344116  1
  O  O39  1  0.41550489  0.69890694  0.37538188  1
  O  O40  1  0.85950044  0.42676982  0.39090813  1
  O  O41  1  0.09429986  0.21591073  0.45640071  1
  O  O42  1  0.62885064  0.40203914  0.45891172  1
  O  O43  1  0.36158837  0.07141264  0.47094160  1
  O  O44  1  0.63841125  0.92858747  0.52905796  1
  O  O45  1  0.37114938  0.59796097  0.54108869  1
  O  O46  1  0.90570089  0.78408754  0.54359970  1
  O  O47  1  0.14049958  0.57323028  0.60909229  1
  O  O48  1  0.58449513  0.30109317  0.62461853  1
  O  O49  1  0.29264042  0.22063222  0.64655841  1
  O  O50  1  0.11061895  0.09902602  0.65308415  1
  O  O51  1  0.79280379  0.25711316  0.65545607  1
  O  O52  1  0.49770778  0.97171724  0.72911638  1
  O  O53  1  0.00882272  0.46266795  0.73508496  1
  O  O54  1  0.99117785  0.96266709  0.76491524  1
  O  O55  1  0.50229206  0.47171626  0.77088382  1
  O  O56  1  0.20719605  0.75711230  0.84454412  1
  O  O57  1  0.88938049  0.59902515  0.84691521  1
  O  O58  1  0.70735974  0.72063320  0.85344095  1
  O  O59  1  0.41550471  0.80109230  0.87538167  1
  O  O60  1  0.85950026  0.07323115  0.89090791  1
  O  O61  1  0.09429968  0.28408840  0.95640050  1
  O  O62  1  0.62885046  0.09795999  0.95891150  1
  O  O63  1  0.36158859  0.42858834  0.97094223  1
  Si  Si64  1  0.66040087  0.27823264  0.06640967  1
  Si  Si65  1  0.15894306  0.22118737  0.09116568  1
  Si  Si66  1  0.84105673  0.72118650  0.40883411  1
  Si  Si67  1  0.33959893  0.77823362  0.43359012  1
  Si  Si68  1  0.66040109  0.22176649  0.56641029  1
  Si  Si69  1  0.15894329  0.27881176  0.59116630  1
  Si  Si70  1  0.84105655  0.77881274  0.90883389  1
  Si  Si71  1  0.33959948  0.72176562  0.93358990  1
