# generated using pymatgen
data_NaEuAl2
_symmetry_space_group_name_H-M   'P 1'
_cell_length_a   5.17936419
_cell_length_b   5.18703800
_cell_length_c   5.19092227
_cell_angle_alpha   59.87344226
_cell_angle_beta   60.02203919
_cell_angle_gamma   60.08511034
_symmetry_Int_Tables_number   1
_chemical_formula_structural   NaEuAl2
_chemical_formula_sum   'Na1 Eu1 Al2'
_cell_volume   98.59583635
_cell_formula_units_Z   1
loop_
 _symmetry_equiv_pos_site_id
 _symmetry_equiv_pos_as_xyz
  1  'x, y, z'
loop_
 _atom_site_type_symbol
 _atom_site_label
 _atom_site_symmetry_multiplicity
 _atom_site_fract_x
 _atom_site_fract_y
 _atom_site_fract_z
 _atom_site_occupancy
  Eu  Eu0  1  0.25008293  0.24994574  0.25000366  1
  Na  Na1  1  0.74993331  0.74995802  0.74996106  1
  Al  Al2  1  0.49987481  0.49975344  0.50011371  1
  Al  Al3  1  0.00013596  0.00011380  0.99990457  1
