# generated using pymatgen
data_SmP
_symmetry_space_group_name_H-M   'P 1'
_cell_length_a   16.53633262
_cell_length_b   16.53633262
_cell_length_c   4.67300974
_cell_angle_alpha   90.00000000
_cell_angle_beta   90.00000000
_cell_angle_gamma   119.99999999
_symmetry_Int_Tables_number   1
_chemical_formula_structural   SmP
_chemical_formula_sum   'Sm2 P2'
_cell_volume   1106.63835087
_cell_formula_units_Z   2
loop_
 _symmetry_equiv_pos_site_id
 _symmetry_equiv_pos_as_xyz
  1  'x, y, z'
loop_
 _atom_site_type_symbol
 _atom_site_label
 _atom_site_symmetry_multiplicity
 _atom_site_fract_x
 _atom_site_fract_y
 _atom_site_fract_z
 _atom_site_occupancy
  P  P0  1  0.41267612  0.40238573  0.50000000  1
  P  P1  1  0.58733465  0.59762203  0.00000000  1
  Sm  Sm2  1  0.50239898  0.58859700  0.50000000  1
  Sm  Sm3  1  0.49759024  0.41139525  0.00000000  1
