# generated using pymatgen
data_LiYReTc
_symmetry_space_group_name_H-M   'P 1'
_cell_length_a   4.55671631
_cell_length_b   4.55671631
_cell_length_c   4.55671631
_cell_angle_alpha   60.00000000
_cell_angle_beta   60.00000000
_cell_angle_gamma   60.00000000
_symmetry_Int_Tables_number   1
_chemical_formula_structural   LiYReTc
_chemical_formula_sum   'Li1 Y1 Re1 Tc1'
_cell_volume   66.90228869
_cell_formula_units_Z   1
loop_
 _symmetry_equiv_pos_site_id
 _symmetry_equiv_pos_as_xyz
  1  'x, y, z'
loop_
 _atom_site_type_symbol
 _atom_site_label
 _atom_site_symmetry_multiplicity
 _atom_site_fract_x
 _atom_site_fract_y
 _atom_site_fract_z
 _atom_site_occupancy
  Li  Li0  1  0.75000039  0.75000039  0.75000039  1
  Re  Re1  1  0.25000116  0.25000116  0.25000116  1
  Tc  Tc2  1  0.49999922  0.49999922  0.49999922  1
  Y  Y3  1  0.00000000  0.00000000  0.00000000  1
