# generated using pymatgen
data_Sr3Be2VO8
_symmetry_space_group_name_H-M   'P 1'
_cell_length_a   5.32839610
_cell_length_b   5.32839611
_cell_length_c   6.88530504
_cell_angle_alpha   90.00000000
_cell_angle_beta   90.00000000
_cell_angle_gamma   119.99999997
_symmetry_Int_Tables_number   1
_chemical_formula_structural   Sr3Be2VO8
_chemical_formula_sum   'Sr3 Be2 V1 O8'
_cell_volume   169.29604846
_cell_formula_units_Z   1
loop_
 _symmetry_equiv_pos_site_id
 _symmetry_equiv_pos_as_xyz
  1  'x, y, z'
loop_
 _atom_site_type_symbol
 _atom_site_label
 _atom_site_symmetry_multiplicity
 _atom_site_fract_x
 _atom_site_fract_y
 _atom_site_fract_z
 _atom_site_occupancy
  Sr  Sr0  1  0.33333333  0.66666667  0.66763600  1
  Sr  Sr1  1  0.66666667  0.33333333  0.33236400  1
  Sr  Sr2  1  0.00000000  0.00000000  0.00000000  1
  Be  Be3  1  0.33333333  0.66666667  0.24219692  1
  Be  Be4  1  0.66666667  0.33333333  0.75780308  1
  V  V5  1  0.00000000  0.00000000  0.50000000  1
  O  O6  1  0.33333333  0.66666667  0.01475465  1
  O  O7  1  0.66666667  0.33333333  0.98524535  1
  O  O8  1  0.16677410  0.83322590  0.33664386  1
  O  O9  1  0.83322590  0.16677410  0.66335614  1
  O  O10  1  0.16677410  0.33354819  0.33664386  1
  O  O11  1  0.83322590  0.66645181  0.66335614  1
  O  O12  1  0.66645181  0.83322590  0.33664386  1
  O  O13  1  0.33354819  0.16677410  0.66335614  1
