# generated using pymatgen
data_AlPdPt
_symmetry_space_group_name_H-M   'P 1'
_cell_length_a   5.79726738
_cell_length_b   4.00215289
_cell_length_c   7.59990752
_cell_angle_alpha   90.00000000
_cell_angle_beta   90.00000000
_cell_angle_gamma   90.00000000
_symmetry_Int_Tables_number   1
_chemical_formula_structural   AlPdPt
_chemical_formula_sum   'Al4 Pd4 Pt4'
_cell_volume   176.32963732
_cell_formula_units_Z   4
loop_
 _symmetry_equiv_pos_site_id
 _symmetry_equiv_pos_as_xyz
  1  'x, y, z'
loop_
 _atom_site_type_symbol
 _atom_site_label
 _atom_site_symmetry_multiplicity
 _atom_site_fract_x
 _atom_site_fract_y
 _atom_site_fract_z
 _atom_site_occupancy
  Al  Al0  1  0.22192180  0.74999883  0.12537916  1
  Al  Al1  1  0.72192116  0.74999883  0.37462035  1
  Al  Al2  1  0.27807929  0.25000044  0.62537998  1
  Al  Al3  1  0.77807865  0.25000044  0.87462117  1
  Pd  Pd4  1  0.66430264  0.74999883  0.05368486  1
  Pd  Pd5  1  0.16430327  0.74999883  0.44631464  1
  Pd  Pd6  1  0.83569718  0.25000044  0.55368568  1
  Pd  Pd7  1  0.33569609  0.25000044  0.94631546  1
  Pt  Pt8  1  0.95345611  0.25000044  0.19778793  1
  Pt  Pt9  1  0.45345675  0.25000044  0.30221157  1
  Pt  Pt10  1  0.54654371  0.74999883  0.69778875  1
  Pt  Pt11  1  0.04654262  0.74999883  0.80221239  1
