# generated using pymatgen
data_La5Ag2Hg
_symmetry_space_group_name_H-M   'P 1'
_cell_length_a   8.66477740
_cell_length_b   8.66477771
_cell_length_c   8.93105354
_cell_angle_alpha   119.01854624
_cell_angle_beta   119.01854948
_cell_angle_gamma   89.99999916
_symmetry_Int_Tables_number   1
_chemical_formula_structural   La5Ag2Hg
_chemical_formula_sum   'La10 Ag4 Hg2'
_cell_volume   487.86226965
_cell_formula_units_Z   2
loop_
 _symmetry_equiv_pos_site_id
 _symmetry_equiv_pos_as_xyz
  1  'x, y, z'
loop_
 _atom_site_type_symbol
 _atom_site_label
 _atom_site_symmetry_multiplicity
 _atom_site_fract_x
 _atom_site_fract_y
 _atom_site_fract_z
 _atom_site_occupancy
  La  La0  1  0.50768879  0.68865523  0.69634502  1
  La  La1  1  0.81134477  0.99231121  0.30365498  1
  La  La2  1  0.00000000  0.00000000  0.00000000  1
  La  La3  1  0.50000000  0.50000000  0.00000000  1
  La  La4  1  0.18865523  0.00768979  0.69634502  1
  La  La5  1  0.68865523  0.18865523  0.69634502  1
  La  La6  1  0.00768979  0.50768979  0.69634502  1
  La  La7  1  0.31134477  0.81134477  0.30365498  1
  La  La8  1  0.99231021  0.49231021  0.30365498  1
  La  La9  1  0.49231021  0.31134477  0.30365498  1
  Ag  Ag10  1  0.12898299  0.37101701  0.00000000  1
  Ag  Ag11  1  0.62898299  0.12898399  0.00000000  1
  Ag  Ag12  1  0.37101601  0.87101701  1.00000000  1
  Ag  Ag13  1  0.87101601  0.62898399  1.00000000  1
  Hg  Hg14  1  0.75000000  0.75000000  0.50000000  1
  Hg  Hg15  1  0.25000000  0.25000000  0.50000000  1
