# generated using pymatgen
data_AlIr
_symmetry_space_group_name_H-M   'P 1'
_cell_length_a   5.29998953
_cell_length_b   5.29998951
_cell_length_c   5.29998952
_cell_angle_alpha   147.65495024
_cell_angle_beta   133.60012242
_cell_angle_gamma   57.69257362
_symmetry_Int_Tables_number   1
_chemical_formula_structural   AlIr
_chemical_formula_sum   'Al2 Ir2'
_cell_volume   57.23373303
_cell_formula_units_Z   2
loop_
 _symmetry_equiv_pos_site_id
 _symmetry_equiv_pos_as_xyz
  1  'x, y, z'
loop_
 _atom_site_type_symbol
 _atom_site_label
 _atom_site_symmetry_multiplicity
 _atom_site_fract_x
 _atom_site_fract_y
 _atom_site_fract_z
 _atom_site_occupancy
  Ir  Ir0  1  0.86723272  0.11723272  0.25000000  1
  Ir  Ir1  1  0.13276728  0.88276728  0.75000000  1
  Al  Al2  1  0.36519513  0.61519513  0.25000000  1
  Al  Al3  1  0.63480487  0.38480487  0.75000000  1
