# generated using pymatgen
data_TbNiH4
_symmetry_space_group_name_H-M   'P 1'
_cell_length_a   3.63593455
_cell_length_b   4.69051417
_cell_length_c   5.98451388
_cell_angle_alpha   90.00000000
_cell_angle_beta   107.55596578
_cell_angle_gamma   90.00000000
_symmetry_Int_Tables_number   1
_chemical_formula_structural   TbNiH4
_chemical_formula_sum   'Tb2 Ni2 H8'
_cell_volume   97.30852900
_cell_formula_units_Z   2
loop_
 _symmetry_equiv_pos_site_id
 _symmetry_equiv_pos_as_xyz
  1  'x, y, z'
loop_
 _atom_site_type_symbol
 _atom_site_label
 _atom_site_symmetry_multiplicity
 _atom_site_fract_x
 _atom_site_fract_y
 _atom_site_fract_z
 _atom_site_occupancy
  H  H0  1  0.00000000  0.00000000  0.00000000  1
  H  H1  1  0.00000000  0.50000062  0.00000000  1
  H  H2  1  0.58419099  0.75000093  0.17125992  1
  H  H3  1  0.19274540  0.00238780  0.38654893  1
  H  H4  1  0.19274540  0.49761282  0.38654893  1
  H  H5  1  0.80725655  0.50238842  0.61345075  1
  H  H6  1  0.80725655  0.99761131  0.61345075  1
  H  H7  1  0.41580821  0.25000031  0.82873977  1
  Ni  Ni8  1  0.09974685  0.75000093  0.19186361  1
  Ni  Ni9  1  0.90025235  0.25000031  0.80813607  1
  Tb  Tb10  1  0.63238619  0.25000031  0.26511050  1
  Tb  Tb11  1  0.36761301  0.75000093  0.73488919  1
