# generated using pymatgen
data_Nd3CoPd
_symmetry_space_group_name_H-M   'P 1'
_cell_length_a   3.86974914
_cell_length_b   8.26352349
_cell_length_c   8.37949165
_cell_angle_alpha   85.66184567
_cell_angle_beta   90.01508348
_cell_angle_gamma   103.56025823
_symmetry_Int_Tables_number   1
_chemical_formula_structural   Nd3CoPd
_chemical_formula_sum   'Nd6 Co2 Pd2'
_cell_volume   259.69927954
_cell_formula_units_Z   2
loop_
 _symmetry_equiv_pos_site_id
 _symmetry_equiv_pos_as_xyz
  1  'x, y, z'
loop_
 _atom_site_type_symbol
 _atom_site_label
 _atom_site_symmetry_multiplicity
 _atom_site_fract_x
 _atom_site_fract_y
 _atom_site_fract_z
 _atom_site_occupancy
  Nd  Nd0  1  0.07837042  0.18979107  0.39211021  1
  Nd  Nd1  1  0.42026992  0.87362422  0.66396336  1
  Nd  Nd2  1  0.62362002  0.28038027  0.75760226  1
  Nd  Nd3  1  0.96573227  0.96432582  0.02949640  1
  Nd  Nd4  1  0.25667611  0.54637620  0.01522554  1
  Nd  Nd5  1  0.78734396  0.60772941  0.40626842  1
  Co  Co6  1  0.24070265  0.51479728  0.65700801  1
  Co  Co7  1  0.80286604  0.63911928  0.76442321  1
  Pd  Pd8  1  0.43091291  0.89514007  0.29243060  1
  Pd  Pd9  1  0.61335709  0.25910841  0.12925060  1
