# generated using pymatgen
data_CsHgIr
_symmetry_space_group_name_H-M   'P 1'
_cell_length_a   5.20783154
_cell_length_b   5.20783154
_cell_length_c   5.20783154
_cell_angle_alpha   60.00000000
_cell_angle_beta   60.00000000
_cell_angle_gamma   60.00000000
_symmetry_Int_Tables_number   1
_chemical_formula_structural   CsHgIr
_chemical_formula_sum   'Cs1 Hg1 Ir1'
_cell_volume   99.87476848
_cell_formula_units_Z   1
loop_
 _symmetry_equiv_pos_site_id
 _symmetry_equiv_pos_as_xyz
  1  'x, y, z'
loop_
 _atom_site_type_symbol
 _atom_site_label
 _atom_site_symmetry_multiplicity
 _atom_site_fract_x
 _atom_site_fract_y
 _atom_site_fract_z
 _atom_site_occupancy
  Cs  Cs0  1  0.25000048  0.25000048  0.25000048  1
  Hg  Hg1  1  0.00000000  0.00000000  0.00000000  1
  Ir  Ir2  1  0.75000007  0.75000007  0.75000007  1
