# generated using pymatgen
data_HgF
_symmetry_space_group_name_H-M   'P 1'
_cell_length_a   6.06370253
_cell_length_b   8.29195164
_cell_length_c   16.77453670
_cell_angle_alpha   90.00000000
_cell_angle_beta   90.00000000
_cell_angle_gamma   70.03046533
_symmetry_Int_Tables_number   1
_chemical_formula_structural   HgF
_chemical_formula_sum   'Hg4 F4'
_cell_volume   792.71117142
_cell_formula_units_Z   4
loop_
 _symmetry_equiv_pos_site_id
 _symmetry_equiv_pos_as_xyz
  1  'x, y, z'
loop_
 _atom_site_type_symbol
 _atom_site_label
 _atom_site_symmetry_multiplicity
 _atom_site_fract_x
 _atom_site_fract_y
 _atom_site_fract_z
 _atom_site_occupancy
  Hg  Hg0  1  0.03521825  0.67692547  0.49070245  1
  Hg  Hg1  1  0.03533802  0.17708137  0.49142482  1
  Hg  Hg2  1  0.48469766  0.06434325  0.50910726  1
  Hg  Hg3  1  0.48449424  0.56471380  0.50874007  1
  F  F4  1  0.67695349  0.26663942  0.44750970  1
  F  F5  1  0.67673327  0.76672699  0.44698958  1
  F  F6  1  0.84326876  0.97457659  0.55277710  1
  F  F7  1  0.84273631  0.47539312  0.55274901  1
