# generated using pymatgen
data_LaPuRh2
_symmetry_space_group_name_H-M   'P 1'
_cell_length_a   4.44556338
_cell_length_b   5.97636423
_cell_length_c   4.44556702
_cell_angle_alpha   68.18685116
_cell_angle_beta   60.02825199
_cell_angle_gamma   68.18625771
_symmetry_Int_Tables_number   1
_chemical_formula_structural   LaPuRh2
_chemical_formula_sum   'La1 Pu1 Rh2'
_cell_volume   92.41647552
_cell_formula_units_Z   1
loop_
 _symmetry_equiv_pos_site_id
 _symmetry_equiv_pos_as_xyz
  1  'x, y, z'
loop_
 _atom_site_type_symbol
 _atom_site_label
 _atom_site_symmetry_multiplicity
 _atom_site_fract_x
 _atom_site_fract_y
 _atom_site_fract_z
 _atom_site_occupancy
  La  La0  1  0.25000938  0.24998943  0.25000447  1
  Rh  Rh1  1  0.03092754  0.90736576  0.03094034  1
  Rh  Rh2  1  0.46905098  0.59263352  0.46906594  1
  Pu  Pu3  1  0.75004910  0.75001029  0.74999024  1
