# generated using pymatgen
data_TlAgBi2
_symmetry_space_group_name_H-M   'P 1'
_cell_length_a   4.74830030
_cell_length_b   4.74830030
_cell_length_c   11.48658412
_cell_angle_alpha   78.07161282
_cell_angle_beta   78.07161282
_cell_angle_gamma   90.00000000
_symmetry_Int_Tables_number   1
_chemical_formula_structural   TlAgBi2
_chemical_formula_sum   'Tl2 Ag2 Bi4'
_cell_volume   247.66988274
_cell_formula_units_Z   2
loop_
 _symmetry_equiv_pos_site_id
 _symmetry_equiv_pos_as_xyz
  1  'x, y, z'
loop_
 _atom_site_type_symbol
 _atom_site_label
 _atom_site_symmetry_multiplicity
 _atom_site_fract_x
 _atom_site_fract_y
 _atom_site_fract_z
 _atom_site_occupancy
  Tl  Tl0  1  0.00000000  0.00000000  0.00000000  1
  Tl  Tl1  1  0.75000000  0.25000000  0.50000000  1
  Bi  Bi2  1  0.58866560  0.12500000  0.25000000  1
  Bi  Bi3  1  0.16133440  0.62500000  0.25000000  1
  Bi  Bi4  1  0.37500000  0.41133440  0.75000000  1
  Bi  Bi5  1  0.87500000  0.83866560  0.75000000  1
  Ag  Ag6  1  0.50000000  0.50000000  0.00000000  1
  Ag  Ag7  1  0.25000000  0.75000000  0.50000000  1
