# generated using pymatgen
data_Er2Al4GaAu3
_symmetry_space_group_name_H-M   'P 1'
_cell_length_a   4.21603341
_cell_length_b   4.21603341
_cell_length_c   10.94204676
_cell_angle_alpha   90.00000000
_cell_angle_beta   90.00000000
_cell_angle_gamma   90.00000000
_symmetry_Int_Tables_number   1
_chemical_formula_structural   Er2Al4GaAu3
_chemical_formula_sum   'Er2 Al4 Ga1 Au3'
_cell_volume   194.49419963
_cell_formula_units_Z   1
loop_
 _symmetry_equiv_pos_site_id
 _symmetry_equiv_pos_as_xyz
  1  'x, y, z'
loop_
 _atom_site_type_symbol
 _atom_site_label
 _atom_site_symmetry_multiplicity
 _atom_site_fract_x
 _atom_site_fract_y
 _atom_site_fract_z
 _atom_site_occupancy
  Er  Er0  1  0.50000000  0.00000000  0.25276490  1
  Er  Er1  1  0.00000000  0.50000000  0.74723510  1
  Al  Al2  1  0.50000000  0.50000000  0.00000000  1
  Al  Al3  1  0.00000000  0.00000000  0.00000000  1
  Al  Al4  1  0.50000000  0.00000000  0.63878562  1
  Al  Al5  1  0.00000000  0.50000000  0.36121438  1
  Ga  Ga6  1  0.50000000  0.50000000  0.50000000  1
  Au  Au7  1  0.00000000  0.00000000  0.50000000  1
  Au  Au8  1  0.50000000  0.00000000  0.86280950  1
  Au  Au9  1  0.00000000  0.50000000  0.13719050  1
