# generated using pymatgen
data_Na(Ge2Pd3)2
_symmetry_space_group_name_H-M   'P 1'
_cell_length_a   7.46658803
_cell_length_b   7.46658803
_cell_length_c   3.80746692
_cell_angle_alpha   90.00000000
_cell_angle_beta   90.00000000
_cell_angle_gamma   120.00000000
_symmetry_Int_Tables_number   1
_chemical_formula_structural   Na(Ge2Pd3)2
_chemical_formula_sum   'Na1 Ge4 Pd6'
_cell_volume   183.82778278
_cell_formula_units_Z   1
loop_
 _symmetry_equiv_pos_site_id
 _symmetry_equiv_pos_as_xyz
  1  'x, y, z'
loop_
 _atom_site_type_symbol
 _atom_site_label
 _atom_site_symmetry_multiplicity
 _atom_site_fract_x
 _atom_site_fract_y
 _atom_site_fract_z
 _atom_site_occupancy
  Ge  Ge0  1  0.33333360  0.66666719  0.00000000  1
  Ge  Ge1  1  0.37522527  0.18761246  0.49999909  1
  Ge  Ge2  1  0.81238746  0.18761246  0.49999909  1
  Ge  Ge3  1  0.81238662  0.62477432  0.49999909  1
  Na  Na4  1  0.00000000  0.00000000  0.00000000  1
  Pd  Pd5  1  0.53593062  0.07186231  0.00000000  1
  Pd  Pd6  1  0.92813838  0.46406924  0.00000000  1
  Pd  Pd7  1  0.53593112  0.46406924  0.00000000  1
  Pd  Pd8  1  0.19953203  0.39906407  0.49999909  1
  Pd  Pd9  1  0.19953188  0.80046798  0.49999909  1
  Pd  Pd10  1  0.60093610  0.80046798  0.49999909  1
