# generated using pymatgen
data_Ta2Ag2Ge
_symmetry_space_group_name_H-M   'P 1'
_cell_length_a   8.21202342
_cell_length_b   8.21202342
_cell_length_c   2.88764013
_cell_angle_alpha   90.00000000
_cell_angle_beta   90.00000000
_cell_angle_gamma   90.00000000
_symmetry_Int_Tables_number   1
_chemical_formula_structural   Ta2Ag2Ge
_chemical_formula_sum   'Ta4 Ag4 Ge2'
_cell_volume   194.73473647
_cell_formula_units_Z   2
loop_
 _symmetry_equiv_pos_site_id
 _symmetry_equiv_pos_as_xyz
  1  'x, y, z'
loop_
 _atom_site_type_symbol
 _atom_site_label
 _atom_site_symmetry_multiplicity
 _atom_site_fract_x
 _atom_site_fract_y
 _atom_site_fract_z
 _atom_site_occupancy
  Ge  Ge0  1  0.00000000  0.00000000  0.00000000  1
  Ge  Ge1  1  0.50000000  0.50000000  0.00000000  1
  Ag  Ag2  1  0.32318315  0.82318315  0.00000000  1
  Ag  Ag3  1  0.82318315  0.67681685  0.00000000  1
  Ag  Ag4  1  0.67681685  0.17681685  0.00000000  1
  Ag  Ag5  1  0.17681685  0.32318315  0.00000000  1
  Ta  Ta6  1  0.11699274  0.61699274  0.50000000  1
  Ta  Ta7  1  0.61699274  0.88300726  0.50000000  1
  Ta  Ta8  1  0.88300726  0.38300726  0.50000000  1
  Ta  Ta9  1  0.38300726  0.11699274  0.50000000  1
