# generated using pymatgen
data_Th3TlF13
_symmetry_space_group_name_H-M   'P 1'
_cell_length_a   8.04251278
_cell_length_b   7.33052861
_cell_length_c   8.53395449
_cell_angle_alpha   90.00000000
_cell_angle_beta   90.00000000
_cell_angle_gamma   90.00000000
_symmetry_Int_Tables_number   1
_chemical_formula_structural   Th3TlF13
_chemical_formula_sum   'Th6 Tl2 F26'
_cell_volume   503.12671179
_cell_formula_units_Z   2
loop_
 _symmetry_equiv_pos_site_id
 _symmetry_equiv_pos_as_xyz
  1  'x, y, z'
loop_
 _atom_site_type_symbol
 _atom_site_label
 _atom_site_symmetry_multiplicity
 _atom_site_fract_x
 _atom_site_fract_y
 _atom_site_fract_z
 _atom_site_occupancy
  F  F0  1  0.18963352  0.54813510  0.01227918  1
  F  F1  1  0.81036614  0.54813510  0.01227918  1
  F  F2  1  0.23753397  0.17471046  0.05450697  1
  F  F3  1  0.76246568  0.17471046  0.05450697  1
  F  F4  1  0.50000045  0.36401877  0.09332016  1
  F  F5  1  0.50000045  0.96836536  0.14914071  1
  F  F6  1  0.00000000  0.57077193  0.26902182  1
  F  F7  1  0.32355684  0.70022508  0.27226885  1
  F  F8  1  0.67644282  0.70022508  0.27226885  1
  F  F9  1  0.00000000  0.22340544  0.28472966  1
  F  F10  1  0.30070453  0.11420459  0.37313065  1
  F  F11  1  0.69929513  0.11420459  0.37313065  1
  F  F12  1  0.50000045  0.40222747  0.37930833  1
  F  F13  1  0.18963352  0.45186509  0.51227951  1
  F  F14  1  0.81036614  0.45186509  0.51227951  1
  F  F15  1  0.23753397  0.82528973  0.55450729  1
  F  F16  1  0.76246568  0.82528973  0.55450729  1
  F  F17  1  0.50000045  0.63598142  0.59332048  1
  F  F18  1  0.50000045  0.03163483  0.64914103  1
  F  F19  1  0.00000000  0.42922825  0.76902215  1
  F  F20  1  0.32355684  0.29977511  0.77226918  1
  F  F21  1  0.67644282  0.29977511  0.77226918  1
  F  F22  1  0.00000000  0.77659475  0.78472999  1
  F  F23  1  0.30070453  0.88579560  0.87313097  1
  F  F24  1  0.69929513  0.88579560  0.87313097  1
  F  F25  1  0.50000045  0.59777272  0.87930865  1
  Th  Th26  1  0.24552650  0.39724830  0.24959589  1
  Th  Th27  1  0.75447316  0.39724830  0.24959589  1
  Th  Th28  1  0.50000045  0.89121267  0.41300783  1
  Th  Th29  1  0.24552650  0.60275189  0.74959622  1
  Th  Th30  1  0.75447316  0.60275189  0.74959622  1
  Th  Th31  1  0.50000045  0.10878752  0.91300815  1
  Tl  Tl32  1  0.00000000  0.89855184  0.11052555  1
  Tl  Tl33  1  0.00000000  0.10144835  0.61052587  1
