# generated using pymatgen
data_Nd2InPb2
_symmetry_space_group_name_H-M   'P 1'
_cell_length_a   4.18527428
_cell_length_b   8.70479814
_cell_length_c   8.70479814
_cell_angle_alpha   90.00000000
_cell_angle_beta   90.00000000
_cell_angle_gamma   90.00000000
_symmetry_Int_Tables_number   1
_chemical_formula_structural   Nd2InPb2
_chemical_formula_sum   'Nd4 In2 Pb4'
_cell_volume   317.13292526
_cell_formula_units_Z   2
loop_
 _symmetry_equiv_pos_site_id
 _symmetry_equiv_pos_as_xyz
  1  'x, y, z'
loop_
 _atom_site_type_symbol
 _atom_site_label
 _atom_site_symmetry_multiplicity
 _atom_site_fract_x
 _atom_site_fract_y
 _atom_site_fract_z
 _atom_site_occupancy
  Nd  Nd0  1  0.00000000  0.86273124  0.36273124  1
  Nd  Nd1  1  0.00000000  0.36273124  0.13726876  1
  Nd  Nd2  1  0.00000000  0.13726876  0.63726876  1
  Nd  Nd3  1  0.00000000  0.63726876  0.86273124  1
  In  In4  1  0.00000000  0.00000000  0.00000000  1
  In  In5  1  0.00000000  0.50000000  0.50000000  1
  Pb  Pb6  1  0.50000000  0.32978218  0.82978218  1
  Pb  Pb7  1  0.50000000  0.82978218  0.67021782  1
  Pb  Pb8  1  0.50000000  0.67021782  0.17021782  1
  Pb  Pb9  1  0.50000000  0.17021782  0.32978218  1
