# generated using pymatgen
data_Li2Co(PtO3)2
_symmetry_space_group_name_H-M   'P 1'
_cell_length_a   5.39487255
_cell_length_b   5.39487254
_cell_length_c   5.18913112
_cell_angle_alpha   99.91451388
_cell_angle_beta   99.91451391
_cell_angle_gamma   120.82018250
_symmetry_Int_Tables_number   1
_chemical_formula_structural   Li2Co(PtO3)2
_chemical_formula_sum   'Li2 Co1 Pt2 O6'
_cell_volume   121.55947404
_cell_formula_units_Z   1
loop_
 _symmetry_equiv_pos_site_id
 _symmetry_equiv_pos_as_xyz
  1  'x, y, z'
loop_
 _atom_site_type_symbol
 _atom_site_label
 _atom_site_symmetry_multiplicity
 _atom_site_fract_x
 _atom_site_fract_y
 _atom_site_fract_z
 _atom_site_occupancy
  Li  Li0  1  0.82964418  0.17035582  -0.00000000  1
  Li  Li1  1  0.17035582  0.82964418  0.00000000  1
  Co  Co2  1  -0.00000000  0.00000000  0.50000000  1
  Pt  Pt3  1  0.33565090  0.66434910  0.50000000  1
  Pt  Pt4  1  0.66434910  0.33565090  0.50000000  1
  O  O5  1  0.74388969  0.74388969  0.71376736  1
  O  O6  1  0.06615454  0.42080726  0.72003207  1
  O  O7  1  0.25611031  0.25611031  0.28623264  1
  O  O8  1  0.42080726  0.06615454  0.72003207  1
  O  O9  1  0.93384546  0.57919274  0.27996793  1
  O  O10  1  0.57919274  0.93384546  0.27996793  1
