# generated using pymatgen
data_BaSrCeHfO6
_symmetry_space_group_name_H-M   'P 1'
_cell_length_a   6.04588660
_cell_length_b   6.06193063
_cell_length_c   8.55147996
_cell_angle_alpha   90.19720555
_cell_angle_beta   90.19380825
_cell_angle_gamma   89.83111669
_symmetry_Int_Tables_number   1
_chemical_formula_structural   BaSrCeHfO6
_chemical_formula_sum   'Ba2 Sr2 Ce2 Hf2 O12'
_cell_volume   313.40456106
_cell_formula_units_Z   2
loop_
 _symmetry_equiv_pos_site_id
 _symmetry_equiv_pos_as_xyz
  1  'x, y, z'
loop_
 _atom_site_type_symbol
 _atom_site_label
 _atom_site_symmetry_multiplicity
 _atom_site_fract_x
 _atom_site_fract_y
 _atom_site_fract_z
 _atom_site_occupancy
  Ba  Ba0  1  0.50575705  0.51914984  0.24982900  1
  Ba  Ba1  1  0.49424295  0.48085016  0.75017100  1
  Sr  Sr2  1  0.99503405  0.02698655  0.25115844  1
  Sr  Sr3  1  0.00496595  0.97301345  0.74884156  1
  Ce  Ce4  1  0.00000000  0.50000000  0.00000000  1
  Ce  Ce5  1  0.50000000  -0.00000000  0.50000000  1
  Hf  Hf6  1  0.50000000  0.00000000  -0.00000000  1
  Hf  Hf7  1  -0.00000000  0.50000000  0.50000000  1
  O  O8  1  0.22852347  0.20926198  0.95251982  1
  O  O9  1  0.27072278  0.71191932  0.52548896  1
  O  O10  1  0.77147653  0.79073802  0.04748018  1
  O  O11  1  0.72927722  0.28808068  0.47451104  1
  O  O12  1  0.28639277  0.73102002  0.97176174  1
  O  O13  1  0.20442898  0.22354852  0.54606438  1
  O  O14  1  0.71360723  0.26897998  0.02823826  1
  O  O15  1  0.79557102  0.77645148  0.45393562  1
  O  O16  1  0.42105509  0.00709319  0.24037321  1
  O  O17  1  0.05952881  0.45952595  0.25958406  1
  O  O18  1  0.57894491  0.99290681  0.75962679  1
  O  O19  1  0.94047119  0.54047405  0.74041594  1
