# generated using pymatgen
data_Li(CrFe)2
_symmetry_space_group_name_H-M   'P 1'
_cell_length_a   6.86337863
_cell_length_b   6.86337863
_cell_length_c   2.52423900
_cell_angle_alpha   90.00000000
_cell_angle_beta   90.00000000
_cell_angle_gamma   90.00000000
_symmetry_Int_Tables_number   1
_chemical_formula_structural   Li(CrFe)2
_chemical_formula_sum   'Li2 Cr4 Fe4'
_cell_volume   118.90671706
_cell_formula_units_Z   2
loop_
 _symmetry_equiv_pos_site_id
 _symmetry_equiv_pos_as_xyz
  1  'x, y, z'
loop_
 _atom_site_type_symbol
 _atom_site_label
 _atom_site_symmetry_multiplicity
 _atom_site_fract_x
 _atom_site_fract_y
 _atom_site_fract_z
 _atom_site_occupancy
  Cr  Cr0  1  0.15452330  0.65452330  0.50000000  1
  Cr  Cr1  1  0.65452330  0.84547670  0.50000000  1
  Cr  Cr2  1  0.84547670  0.34547670  0.50000000  1
  Cr  Cr3  1  0.34547670  0.15452330  0.50000000  1
  Fe  Fe4  1  0.36047700  0.86047700  0.00000000  1
  Fe  Fe5  1  0.86047700  0.63952300  0.00000000  1
  Fe  Fe6  1  0.63952300  0.13952300  0.00000000  1
  Fe  Fe7  1  0.13952300  0.36047700  0.00000000  1
  Li  Li8  1  0.00000000  0.00000000  0.00000000  1
  Li  Li9  1  0.50000000  0.50000000  0.00000000  1
