# generated using pymatgen
data_ErCdCu
_symmetry_space_group_name_H-M   'P 1'
_cell_length_a   3.34997541
_cell_length_b   4.64994650
_cell_length_c   4.64994650
_cell_angle_alpha   119.99999997
_cell_angle_beta   90.00000000
_cell_angle_gamma   90.00000000
_symmetry_Int_Tables_number   1
_chemical_formula_structural   ErCdCu
_chemical_formula_sum   'Er1 Cd1 Cu1'
_cell_volume   62.72897103
_cell_formula_units_Z   1
loop_
 _symmetry_equiv_pos_site_id
 _symmetry_equiv_pos_as_xyz
  1  'x, y, z'
loop_
 _atom_site_type_symbol
 _atom_site_label
 _atom_site_symmetry_multiplicity
 _atom_site_fract_x
 _atom_site_fract_y
 _atom_site_fract_z
 _atom_site_occupancy
  Cd  Cd0  1  0.16731258  0.00000000  0.00000000  1
  Cu  Cu1  1  0.16553527  0.33333333  0.66666667  1
  Er  Er2  1  0.66715215  0.66666667  0.33333333  1
