# generated using pymatgen
data_BaYW2
_symmetry_space_group_name_H-M   'P 1'
_cell_length_a   11.36053613
_cell_length_b   11.36053614
_cell_length_c   11.36053614
_cell_angle_alpha   15.68918642
_cell_angle_beta   15.68918640
_cell_angle_gamma   15.68918642
_symmetry_Int_Tables_number   1
_chemical_formula_structural   BaYW2
_chemical_formula_sum   'Ba1 Y1 W2'
_cell_volume   93.43415726
_cell_formula_units_Z   1
loop_
 _symmetry_equiv_pos_site_id
 _symmetry_equiv_pos_as_xyz
  1  'x, y, z'
loop_
 _atom_site_type_symbol
 _atom_site_label
 _atom_site_symmetry_multiplicity
 _atom_site_fract_x
 _atom_site_fract_y
 _atom_site_fract_z
 _atom_site_occupancy
  Ba  Ba0  1  0.75000000  0.75000000  0.75000000  1
  W  W1  1  0.99225682  0.99225682  0.99225682  1
  W  W2  1  0.50774318  0.50774318  0.50774318  1
  Y  Y3  1  0.25000000  0.25000000  0.25000000  1
