# generated using pymatgen
data_Pa2AgMoO8
_symmetry_space_group_name_H-M   'P 1'
_cell_length_a   5.44078818
_cell_length_b   5.44078818
_cell_length_c   6.70722712
_cell_angle_alpha   113.92819684
_cell_angle_beta   113.92819684
_cell_angle_gamma   90.00000000
_symmetry_Int_Tables_number   1
_chemical_formula_structural   Pa2AgMoO8
_chemical_formula_sum   'Pa2 Ag1 Mo1 O8'
_cell_volume   162.63912781
_cell_formula_units_Z   1
loop_
 _symmetry_equiv_pos_site_id
 _symmetry_equiv_pos_as_xyz
  1  'x, y, z'
loop_
 _atom_site_type_symbol
 _atom_site_label
 _atom_site_symmetry_multiplicity
 _atom_site_fract_x
 _atom_site_fract_y
 _atom_site_fract_z
 _atom_site_occupancy
  Pa  Pa0  1  0.50000000  0.50000000  0.00000000  1
  Pa  Pa1  1  0.25000000  0.75000000  0.50000000  1
  Ag  Ag2  1  0.00000000  0.00000000  0.00000000  1
  Mo  Mo3  1  0.75000000  0.25000000  0.50000000  1
  O  O4  1  0.84948531  0.93149068  0.32012154  1
  O  O5  1  0.47063622  0.38863086  0.32012154  1
  O  O6  1  0.57494006  0.68204890  0.79077054  1
  O  O7  1  0.21583047  0.10872164  0.79077054  1
  O  O8  1  0.89127836  0.42505994  0.20922946  1
  O  O9  1  0.31795110  0.78416953  0.20922946  1
  O  O10  1  0.06850932  0.52936378  0.67987846  1
  O  O11  1  0.61136914  0.15051469  0.67987846  1
