# generated using pymatgen
data_NdGa2Au
_symmetry_space_group_name_H-M   'P 1'
_cell_length_a   4.38735588
_cell_length_b   4.38735587
_cell_length_c   5.76578567
_cell_angle_alpha   67.63752952
_cell_angle_beta   67.63752954
_cell_angle_gamma   59.99999995
_symmetry_Int_Tables_number   1
_chemical_formula_structural   NdGa2Au
_chemical_formula_sum   'Nd1 Ga2 Au1'
_cell_volume   86.34364999
_cell_formula_units_Z   1
loop_
 _symmetry_equiv_pos_site_id
 _symmetry_equiv_pos_as_xyz
  1  'x, y, z'
loop_
 _atom_site_type_symbol
 _atom_site_label
 _atom_site_symmetry_multiplicity
 _atom_site_fract_x
 _atom_site_fract_y
 _atom_site_fract_z
 _atom_site_occupancy
  Nd  Nd0  1  0.00000000  0.00000000  0.00000000  1
  Au  Au1  1  0.50000000  0.50000000  0.50000000  1
  Ga  Ga2  1  0.78065239  0.78065239  0.65804282  1
  Ga  Ga3  1  0.21934761  0.21934761  0.34195718  1
