# generated using pymatgen
data_CrSiTc
_symmetry_space_group_name_H-M   'P 1'
_cell_length_a   13.08919681
_cell_length_b   3.92605828
_cell_length_c   2.99343301
_cell_angle_alpha   90.00000000
_cell_angle_beta   90.00000000
_cell_angle_gamma   90.00000000
_symmetry_Int_Tables_number   1
_chemical_formula_structural   CrSiTc
_chemical_formula_sum   'Cr4 Si4 Tc4'
_cell_volume   153.82937783
_cell_formula_units_Z   4
loop_
 _symmetry_equiv_pos_site_id
 _symmetry_equiv_pos_as_xyz
  1  'x, y, z'
loop_
 _atom_site_type_symbol
 _atom_site_label
 _atom_site_symmetry_multiplicity
 _atom_site_fract_x
 _atom_site_fract_y
 _atom_site_fract_z
 _atom_site_occupancy
  Cr  Cr0  1  0.00000000  0.00000000  0.00000000  1
  Cr  Cr1  1  0.50000000  0.50000000  0.50000000  1
  Cr  Cr2  1  0.00000000  0.50000000  0.50000000  1
  Cr  Cr3  1  0.50000000  0.00000000  0.00000000  1
  Si  Si4  1  0.14095454  0.50000000  0.00000000  1
  Si  Si5  1  0.85904546  0.50000000  0.00000000  1
  Si  Si6  1  0.64095454  0.00000000  0.50000000  1
  Si  Si7  1  0.35904546  0.00000000  0.50000000  1
  Tc  Tc8  1  0.67307754  0.50000000  0.00000000  1
  Tc  Tc9  1  0.32692246  0.50000000  0.00000000  1
  Tc  Tc10  1  0.17307754  0.00000000  0.50000000  1
  Tc  Tc11  1  0.82692246  0.00000000  0.50000000  1
