# generated using pymatgen
data_LiTl4Ir
_symmetry_space_group_name_H-M   'P 1'
_cell_length_a   6.80780760
_cell_length_b   6.80780760
_cell_length_c   7.73282268
_cell_angle_alpha   116.11594331
_cell_angle_beta   116.11594331
_cell_angle_gamma   90.00000000
_symmetry_Int_Tables_number   1
_chemical_formula_structural   LiTl4Ir
_chemical_formula_sum   'Li2 Tl8 Ir2'
_cell_volume   280.47491310
_cell_formula_units_Z   2
loop_
 _symmetry_equiv_pos_site_id
 _symmetry_equiv_pos_as_xyz
  1  'x, y, z'
loop_
 _atom_site_type_symbol
 _atom_site_label
 _atom_site_symmetry_multiplicity
 _atom_site_fract_x
 _atom_site_fract_y
 _atom_site_fract_z
 _atom_site_occupancy
  Tl  Tl0  1  0.53850453  0.69637191  0.73487644  1
  Tl  Tl1  1  0.03850453  0.53850453  0.73487644  1
  Tl  Tl2  1  0.69637191  0.19637191  0.73487644  1
  Tl  Tl3  1  0.30362809  0.80362809  0.26512356  1
  Tl  Tl4  1  0.96149547  0.46149547  0.26512356  1
  Tl  Tl5  1  0.46149547  0.30362809  0.26512356  1
  Tl  Tl6  1  0.80362809  0.96149547  0.26512356  1
  Tl  Tl7  1  0.19637191  0.03850453  0.73487644  1
  Ir  Ir8  1  0.75000000  0.75000000  0.50000000  1
  Ir  Ir9  1  0.25000000  0.25000000  0.50000000  1
  Li  Li10  1  0.50000000  0.50000000  0.00000000  1
  Li  Li11  1  0.00000000  0.00000000  0.00000000  1
