# generated using pymatgen
data_PaTlSe3
_symmetry_space_group_name_H-M   'P 1'
_cell_length_a   7.36072034
_cell_length_b   10.02111989
_cell_length_c   10.02111990
_cell_angle_alpha   77.41310587
_cell_angle_beta   83.91887887
_cell_angle_gamma   83.91887884
_symmetry_Int_Tables_number   1
_chemical_formula_structural   PaTlSe3
_chemical_formula_sum   'Pa4 Tl4 Se12'
_cell_volume   714.74094621
_cell_formula_units_Z   4
loop_
 _symmetry_equiv_pos_site_id
 _symmetry_equiv_pos_as_xyz
  1  'x, y, z'
loop_
 _atom_site_type_symbol
 _atom_site_label
 _atom_site_symmetry_multiplicity
 _atom_site_fract_x
 _atom_site_fract_y
 _atom_site_fract_z
 _atom_site_occupancy
  Pa  Pa0  1  0.98426027  0.67091058  0.83370364  1
  Pa  Pa1  1  0.51573973  0.16629636  0.32908942  1
  Pa  Pa2  1  0.01573973  0.32908942  0.16629636  1
  Pa  Pa3  1  0.48426027  0.83370364  0.67091058  1
  Tl  Tl4  1  0.25000000  0.89525916  0.10474084  1
  Tl  Tl5  1  0.75000000  0.10474084  0.89525916  1
  Tl  Tl6  1  0.25000000  0.27667227  0.72332773  1
  Tl  Tl7  1  0.75000000  0.72332773  0.27667227  1
  Se  Se8  1  0.64158376  0.79072973  0.92334995  1
  Se  Se9  1  0.85841624  0.07665005  0.20927027  1
  Se  Se10  1  0.35841624  0.20927027  0.07665005  1
  Se  Se11  1  0.14158376  0.92334995  0.79072973  1
  Se  Se12  1  0.90087403  0.39881985  0.90202364  1
  Se  Se13  1  0.59912597  0.09797636  0.60118015  1
  Se  Se14  1  0.09912597  0.60118015  0.09797636  1
  Se  Se15  1  0.40087403  0.90202364  0.39881985  1
  Se  Se16  1  0.81801491  0.70832615  0.59278359  1
  Se  Se17  1  0.68198509  0.40721641  0.29167385  1
  Se  Se18  1  0.18198509  0.29167385  0.40721641  1
  Se  Se19  1  0.31801491  0.59278359  0.70832615  1
