# generated using pymatgen
data_CaLuTc4
_symmetry_space_group_name_H-M   'P 1'
_cell_length_a   5.37598947
_cell_length_b   5.37598948
_cell_length_c   5.37598948
_cell_angle_alpha   59.99999997
_cell_angle_beta   60.00000001
_cell_angle_gamma   60.00000000
_symmetry_Int_Tables_number   1
_chemical_formula_structural   CaLuTc4
_chemical_formula_sum   'Ca1 Lu1 Tc4'
_cell_volume   109.86522058
_cell_formula_units_Z   1
loop_
 _symmetry_equiv_pos_site_id
 _symmetry_equiv_pos_as_xyz
  1  'x, y, z'
loop_
 _atom_site_type_symbol
 _atom_site_label
 _atom_site_symmetry_multiplicity
 _atom_site_fract_x
 _atom_site_fract_y
 _atom_site_fract_z
 _atom_site_occupancy
  Ca  Ca0  1  0.00000000  0.00000000  0.00000000  1
  Lu  Lu1  1  0.25000000  0.25000000  0.25000000  1
  Tc  Tc2  1  0.62491749  0.62491649  0.12524952  1
  Tc  Tc3  1  0.62491749  0.12524952  0.62491649  1
  Tc  Tc4  1  0.62491749  0.62491649  0.62491649  1
  Tc  Tc5  1  0.12525052  0.62491649  0.62491649  1
