# generated using pymatgen
data_Al9Au25
_symmetry_space_group_name_H-M   'P 1'
_cell_length_a   7.80860751
_cell_length_b   7.80860751
_cell_length_c   11.10703272
_cell_angle_alpha   90.00000000
_cell_angle_beta   90.00000000
_cell_angle_gamma   120.00000000
_symmetry_Int_Tables_number   1
_chemical_formula_structural   Al9Au25
_chemical_formula_sum   'Al9 Au25'
_cell_volume   586.51060750
_cell_formula_units_Z   1
loop_
 _symmetry_equiv_pos_site_id
 _symmetry_equiv_pos_as_xyz
  1  'x, y, z'
loop_
 _atom_site_type_symbol
 _atom_site_label
 _atom_site_symmetry_multiplicity
 _atom_site_fract_x
 _atom_site_fract_y
 _atom_site_fract_z
 _atom_site_occupancy
  Al  Al0  1  0.00000000  0.00000000  0.00000000  1
  Al  Al1  1  0.66666613  0.33333321  0.02268653  1
  Al  Al2  1  0.33201260  0.33295465  0.31957680  1
  Al  Al3  1  0.00094178  0.66798695  0.31957680  1
  Al  Al4  1  0.66704526  0.99905767  0.31957680  1
  Al  Al5  1  0.33295408  0.00094197  0.68042295  1
  Al  Al6  1  0.99905756  0.33201268  0.68042295  1
  Al  Al7  1  0.66798674  0.66704498  0.68042295  1
  Al  Al8  1  0.33333321  0.66666642  0.97731323  1
  Au  Au9  1  0.31412333  0.33990331  0.06892120  1
  Au  Au10  1  0.02577947  0.68587691  0.06892120  1
  Au  Au11  1  0.66009757  0.97422053  0.06892120  1
  Au  Au12  1  0.39657793  0.06970548  0.19478650  1
  Au  Au13  1  0.93029515  0.32687254  0.19478650  1
  Au  Au14  1  0.67312786  0.60342162  0.19478650  1
  Au  Au15  1  0.33333321  0.66666642  0.23315768  1
  Au  Au16  1  0.00000000  0.00000000  0.24208536  1
  Au  Au17  1  0.66666613  0.33333321  0.38357319  1
  Au  Au18  1  0.07122338  0.38584227  0.43661886  1
  Au  Au19  1  0.61415786  0.68538153  0.43661886  1
  Au  Au20  1  0.31461914  0.92877695  0.43661886  1
  Au  Au21  1  0.00000000  0.00000000  0.50000033  1
  Au  Au22  1  0.68538020  0.07122268  0.56338089  1
  Au  Au23  1  0.38584222  0.31461959  0.56338089  1
  Au  Au24  1  0.92877596  0.61415737  0.56338089  1
  Au  Au25  1  0.33333321  0.66666642  0.61642656  1
  Au  Au26  1  0.00000000  0.00000000  0.75791440  1
  Au  Au27  1  0.66666613  0.33333321  0.76684207  1
  Au  Au28  1  0.32687275  0.39657802  0.80521326  1
  Au  Au29  1  0.06970547  0.67312710  0.80521326  1
  Au  Au30  1  0.60342141  0.93029415  0.80521326  1
  Au  Au31  1  0.33990378  0.02578059  0.93107856  1
  Au  Au32  1  0.97421986  0.31412273  0.93107856  1
  Au  Au33  1  0.68587601  0.66009632  0.93107856  1
