# generated using pymatgen
data_MgNpIn
_symmetry_space_group_name_H-M   'P 1'
_cell_length_a   3.12310399
_cell_length_b   3.12310399
_cell_length_c   7.65081553
_cell_angle_alpha   101.77697612
_cell_angle_beta   101.77697612
_cell_angle_gamma   90.00000000
_symmetry_Int_Tables_number   1
_chemical_formula_structural   MgNpIn
_chemical_formula_sum   'Mg1 Np1 In1'
_cell_volume   71.44806824
_cell_formula_units_Z   1
loop_
 _symmetry_equiv_pos_site_id
 _symmetry_equiv_pos_as_xyz
  1  'x, y, z'
loop_
 _atom_site_type_symbol
 _atom_site_label
 _atom_site_symmetry_multiplicity
 _atom_site_fract_x
 _atom_site_fract_y
 _atom_site_fract_z
 _atom_site_occupancy
  Np  Np0  1  0.99845757  0.99845757  0.99691513  1
  Mg  Mg1  1  0.67376500  0.67376500  0.34753001  1
  In  In2  1  0.32777743  0.32777743  0.65555486  1
