# generated using pymatgen
data_KPrMgSe3
_symmetry_space_group_name_H-M   'P 1'
_cell_length_a   7.75843147
_cell_length_b   7.75843147
_cell_length_c   11.63241042
_cell_angle_alpha   90.00000000
_cell_angle_beta   90.00000000
_cell_angle_gamma   147.46624151
_symmetry_Int_Tables_number   1
_chemical_formula_structural   KPrMgSe3
_chemical_formula_sum   'K2 Pr2 Mg2 Se6'
_cell_volume   376.56113550
_cell_formula_units_Z   2
loop_
 _symmetry_equiv_pos_site_id
 _symmetry_equiv_pos_as_xyz
  1  'x, y, z'
loop_
 _atom_site_type_symbol
 _atom_site_label
 _atom_site_symmetry_multiplicity
 _atom_site_fract_x
 _atom_site_fract_y
 _atom_site_fract_z
 _atom_site_occupancy
  K  K0  1  0.75319252  0.24680819  0.24999978  1
  K  K1  1  0.24680819  0.75319252  0.75000019  1
  Mg  Mg2  1  0.03418752  0.96581320  0.24999978  1
  Mg  Mg3  1  0.96581320  0.03418752  0.75000019  1
  Pr  Pr4  1  0.50000036  0.50000036  0.00000000  1
  Pr  Pr5  1  0.50000036  0.50000036  0.50000041  1
  Se  Se6  1  0.12784956  0.87215116  0.06711851  1
  Se  Se7  1  0.43333406  0.56666666  0.24999978  1
  Se  Se8  1  0.12784956  0.87215116  0.43288191  1
  Se  Se9  1  0.87215116  0.12784956  0.56711806  1
  Se  Se10  1  0.56666666  0.43333406  0.75000019  1
  Se  Se11  1  0.87215116  0.12784956  0.93288232  1
