# generated using pymatgen
data_ReN2
_symmetry_space_group_name_H-M   'P 1'
_cell_length_a   4.91315981
_cell_length_b   5.48035085
_cell_length_c   16.02533382
_cell_angle_alpha   90.00000000
_cell_angle_beta   90.00000000
_cell_angle_gamma   90.00000000
_symmetry_Int_Tables_number   1
_chemical_formula_structural   ReN2
_chemical_formula_sum   'Re2 N4'
_cell_volume   431.49556703
_cell_formula_units_Z   2
loop_
 _symmetry_equiv_pos_site_id
 _symmetry_equiv_pos_as_xyz
  1  'x, y, z'
loop_
 _atom_site_type_symbol
 _atom_site_label
 _atom_site_symmetry_multiplicity
 _atom_site_fract_x
 _atom_site_fract_y
 _atom_site_fract_z
 _atom_site_occupancy
  Re  Re0  1  0.00000000  0.30839247  0.50000000  1
  Re  Re1  1  0.50000000  0.80839247  0.50000000  1
  N  N2  1  0.76381764  0.01431827  0.53199103  1
  N  N3  1  0.23618236  0.01431827  0.46800897  1
  N  N4  1  0.73618236  0.51431827  0.53199103  1
  N  N5  1  0.26381764  0.51431827  0.46800897  1
