# generated using pymatgen
data_AlCu2Os
_symmetry_space_group_name_H-M   'P 1'
_cell_length_a   4.36499199
_cell_length_b   2.64780577
_cell_length_c   4.63862366
_cell_angle_alpha   83.56022213
_cell_angle_beta   90.00000000
_cell_angle_gamma   90.00000000
_symmetry_Int_Tables_number   1
_chemical_formula_structural   AlCu2Os
_chemical_formula_sum   'Al1 Cu2 Os1'
_cell_volume   53.27331991
_cell_formula_units_Z   1
loop_
 _symmetry_equiv_pos_site_id
 _symmetry_equiv_pos_as_xyz
  1  'x, y, z'
loop_
 _atom_site_type_symbol
 _atom_site_label
 _atom_site_symmetry_multiplicity
 _atom_site_fract_x
 _atom_site_fract_y
 _atom_site_fract_z
 _atom_site_occupancy
  Os  Os0  1  0.50000000  0.25000000  0.25000000  1
  Al  Al1  1  0.50000000  0.75000000  0.75000000  1
  Cu  Cu2  1  0.00000000  0.94272471  0.99870832  1
  Cu  Cu3  1  0.00000000  0.55727529  0.50129168  1
