# generated using pymatgen
data_KSr2Y
_symmetry_space_group_name_H-M   'P 1'
_cell_length_a   7.33941935
_cell_length_b   7.33941934
_cell_length_c   7.33941935
_cell_angle_alpha   134.75369655
_cell_angle_beta   134.75369657
_cell_angle_gamma   65.91312245
_symmetry_Int_Tables_number   1
_chemical_formula_structural   KSr2Y
_chemical_formula_sum   'K1 Sr2 Y1'
_cell_volume   196.34643729
_cell_formula_units_Z   1
loop_
 _symmetry_equiv_pos_site_id
 _symmetry_equiv_pos_as_xyz
  1  'x, y, z'
loop_
 _atom_site_type_symbol
 _atom_site_label
 _atom_site_symmetry_multiplicity
 _atom_site_fract_x
 _atom_site_fract_y
 _atom_site_fract_z
 _atom_site_occupancy
  K  K0  1  0.75000000  0.25000000  0.50000000  1
  Sr  Sr1  1  0.00000000  0.00000000  0.00000000  1
  Sr  Sr2  1  0.25000000  0.75000000  0.50000000  1
  Y  Y3  1  0.50000000  0.50000000  0.00000000  1
