# generated using pymatgen
data_ZrTaMnTc
_symmetry_space_group_name_H-M   'P 1'
_cell_length_a   4.50628462
_cell_length_b   4.50628461
_cell_length_c   4.50628462
_cell_angle_alpha   59.99999995
_cell_angle_beta   59.99999997
_cell_angle_gamma   59.99999995
_symmetry_Int_Tables_number   1
_chemical_formula_structural   ZrTaMnTc
_chemical_formula_sum   'Zr1 Ta1 Mn1 Tc1'
_cell_volume   64.70544920
_cell_formula_units_Z   1
loop_
 _symmetry_equiv_pos_site_id
 _symmetry_equiv_pos_as_xyz
  1  'x, y, z'
loop_
 _atom_site_type_symbol
 _atom_site_label
 _atom_site_symmetry_multiplicity
 _atom_site_fract_x
 _atom_site_fract_y
 _atom_site_fract_z
 _atom_site_occupancy
  Mn  Mn0  1  0.75000000  0.75000000  0.75000000  1
  Tc  Tc1  1  0.25000000  0.25000000  0.25000000  1
  Zr  Zr2  1  0.50000000  0.50000000  0.50000000  1
  Ta  Ta3  1  0.00000000  0.00000000  0.00000000  1
