# generated using pymatgen
data_BaHgSeO
_symmetry_space_group_name_H-M   'P 1'
_cell_length_a   4.31320500
_cell_length_b   4.31199711
_cell_length_c   13.19172500
_cell_angle_alpha   90.00000000
_cell_angle_beta   90.00000000
_cell_angle_gamma   120.00927448
_symmetry_Int_Tables_number   1
_chemical_formula_structural   BaHgSeO
_chemical_formula_sum   'Ba2 Hg2 Se2 O2'
_cell_volume   212.45658060
_cell_formula_units_Z   2
loop_
 _symmetry_equiv_pos_site_id
 _symmetry_equiv_pos_as_xyz
  1  'x, y, z'
loop_
 _atom_site_type_symbol
 _atom_site_label
 _atom_site_symmetry_multiplicity
 _atom_site_fract_x
 _atom_site_fract_y
 _atom_site_fract_z
 _atom_site_occupancy
  Ba  Ba0  1  0.00000000  0.00000000  0.49287337  1
  Ba  Ba1  1  0.00000000  0.00000000  0.99287318  1
  Hg  Hg2  1  0.33326780  0.66653544  0.25081708  1
  Hg  Hg3  1  0.66673174  0.33346456  0.75081765  1
  O  O4  1  0.00000000  0.00015801  0.31110639  1
  O  O5  1  0.00000000  0.99984199  0.81110620  1
  Se  Se6  1  0.66664872  0.33329852  0.13289240  1
  Se  Se7  1  0.33335082  0.66670148  0.63289221  1
