# generated using pymatgen
data_Ba2Zn4CdSi3
_symmetry_space_group_name_H-M   'P 1'
_cell_length_a   4.46539355
_cell_length_b   4.46539355
_cell_length_c   10.98005644
_cell_angle_alpha   90.00000000
_cell_angle_beta   90.00000000
_cell_angle_gamma   90.00000000
_symmetry_Int_Tables_number   1
_chemical_formula_structural   Ba2Zn4CdSi3
_chemical_formula_sum   'Ba2 Zn4 Cd1 Si3'
_cell_volume   218.93946573
_cell_formula_units_Z   1
loop_
 _symmetry_equiv_pos_site_id
 _symmetry_equiv_pos_as_xyz
  1  'x, y, z'
loop_
 _atom_site_type_symbol
 _atom_site_label
 _atom_site_symmetry_multiplicity
 _atom_site_fract_x
 _atom_site_fract_y
 _atom_site_fract_z
 _atom_site_occupancy
  Ba  Ba0  1  0.50000000  0.00000000  0.23795526  1
  Ba  Ba1  1  0.00000000  0.50000000  0.76204474  1
  Zn  Zn2  1  0.50000000  0.50000000  0.00000000  1
  Zn  Zn3  1  0.00000000  0.00000000  0.00000000  1
  Zn  Zn4  1  0.50000000  0.00000000  0.64128519  1
  Zn  Zn5  1  0.00000000  0.50000000  0.35871481  1
  Cd  Cd6  1  0.50000000  0.50000000  0.50000000  1
  Si  Si7  1  0.00000000  0.00000000  0.50000000  1
  Si  Si8  1  0.50000000  0.00000000  0.87494010  1
  Si  Si9  1  0.00000000  0.50000000  0.12505990  1
