# generated using pymatgen
data_ZnCo17
_symmetry_space_group_name_H-M   'P 1'
_cell_length_a   4.96060828
_cell_length_b   4.96060828
_cell_length_c   31.28902961
_cell_angle_alpha   90.00000000
_cell_angle_beta   90.00000000
_cell_angle_gamma   120.00000000
_symmetry_Int_Tables_number   1
_chemical_formula_structural   ZnCo17
_chemical_formula_sum   'Zn2 Co34'
_cell_volume   666.79539728
_cell_formula_units_Z   2
loop_
 _symmetry_equiv_pos_site_id
 _symmetry_equiv_pos_as_xyz
  1  'x, y, z'
loop_
 _atom_site_type_symbol
 _atom_site_label
 _atom_site_symmetry_multiplicity
 _atom_site_fract_x
 _atom_site_fract_y
 _atom_site_fract_z
 _atom_site_occupancy
  Co  Co0  1  0.50183924  0.00368016  0.24127882  1
  Co  Co1  1  0.50183912  0.49815960  0.24127882  1
  Co  Co2  1  0.99632082  0.49815960  0.24127882  1
  Co  Co3  1  0.33333351  0.66666701  0.30482345  1
  Co  Co4  1  0.34176224  0.17088171  0.30540992  1
  Co  Co5  1  0.82911981  0.17088171  0.30540992  1
  Co  Co6  1  0.82911830  0.65823826  0.30540992  1
  Co  Co7  1  0.66666534  0.33333234  0.36934766  1
  Co  Co8  1  0.16734587  0.33469174  0.37033172  1
  Co  Co9  1  0.16734518  0.83265348  0.37033172  1
  Co  Co10  1  0.66530830  0.83265348  0.37033172  1
  Co  Co11  1  0.00067240  0.50033603  0.43502947  1
  Co  Co12  1  0.49966363  0.50033603  0.43502947  1
  Co  Co13  1  0.49966332  0.99932663  0.43502947  1
  Co  Co14  1  0.00000000  0.00000000  0.43506559  1
  Co  Co15  1  0.33333468  0.16666617  0.50003532  1
  Co  Co16  1  0.83333183  0.16666617  0.50003532  1
  Co  Co17  1  0.83333151  0.66666468  0.50003532  1
  Co  Co18  1  0.33333351  0.66666701  0.50004299  1
  Co  Co19  1  0.66666534  0.33333234  0.56494274  1
  Co  Co20  1  0.16697809  0.33395618  0.56499355  1
  Co  Co21  1  0.16697873  0.83302126  0.56499355  1
  Co  Co22  1  0.66604253  0.83302126  0.56499355  1
  Co  Co23  1  0.00140865  0.50070382  0.62963794  1
  Co  Co24  1  0.49929517  0.50070382  0.62963794  1
  Co  Co25  1  0.49929553  0.99859107  0.62963794  1
  Co  Co26  1  0.00000000  0.00000000  0.63061208  1
  Co  Co27  1  0.32491465  0.16245762  0.69456037  1
  Co  Co28  1  0.83754130  0.16245762  0.69456037  1
  Co  Co29  1  0.83754122  0.67508412  0.69456037  1
  Co  Co30  1  0.33333351  0.66666701  0.69512447  1
  Co  Co31  1  0.16481445  0.32962891  0.75872823  1
  Co  Co32  1  0.16481556  0.83518606  0.75872823  1
  Co  Co33  1  0.67037050  0.83518606  0.75872823  1
  Zn  Zn34  1  0.00000000  0.00000000  0.23571776  1
  Zn  Zn35  1  0.66666534  0.33333234  0.76430686  1
