# generated using pymatgen
data_K3Ho2InO6
_symmetry_space_group_name_H-M   'P 1'
_cell_length_a   5.93445570
_cell_length_b   5.93445570
_cell_length_c   6.55881958
_cell_angle_alpha   98.65673750
_cell_angle_beta   98.65673753
_cell_angle_gamma   119.99986198
_symmetry_Int_Tables_number   1
_chemical_formula_structural   K3Ho2InO6
_chemical_formula_sum   'K3 Ho2 In1 O6'
_cell_volume   190.76201158
_cell_formula_units_Z   1
loop_
 _symmetry_equiv_pos_site_id
 _symmetry_equiv_pos_as_xyz
  1  'x, y, z'
loop_
 _atom_site_type_symbol
 _atom_site_label
 _atom_site_symmetry_multiplicity
 _atom_site_fract_x
 _atom_site_fract_y
 _atom_site_fract_z
 _atom_site_occupancy
  K  K0  1  0.16411209  0.83588791  0.50000000  1
  K  K1  1  0.83588791  0.16411209  0.50000000  1
  K  K2  1  0.50000000  0.50000000  0.50000000  1
  Ho  Ho3  1  0.33322953  0.66677047  0.00000000  1
  Ho  Ho4  1  0.66677047  0.33322953  -0.00000000  1
  In  In5  1  0.00000000  0.00000000  0.00000000  1
  O  O6  1  0.93776655  0.60646124  0.81301539  1
  O  O7  1  0.73098019  0.73098019  0.18645215  1
  O  O8  1  0.06223345  0.39353876  0.18698461  1
  O  O9  1  0.60646124  0.93776655  0.81301539  1
  O  O10  1  0.26901981  0.26901981  0.81354785  1
  O  O11  1  0.39353876  0.06223345  0.18698461  1
