# generated using pymatgen
data_CoSbMo
_symmetry_space_group_name_H-M   'P 1'
_cell_length_a   4.32890089
_cell_length_b   4.32890090
_cell_length_c   2.93380918
_cell_angle_alpha   90.00000000
_cell_angle_beta   90.00000000
_cell_angle_gamma   120.00000000
_symmetry_Int_Tables_number   1
_chemical_formula_structural   CoSbMo
_chemical_formula_sum   'Co1 Sb1 Mo1'
_cell_volume   47.61214871
_cell_formula_units_Z   1
loop_
 _symmetry_equiv_pos_site_id
 _symmetry_equiv_pos_as_xyz
  1  'x, y, z'
loop_
 _atom_site_type_symbol
 _atom_site_label
 _atom_site_symmetry_multiplicity
 _atom_site_fract_x
 _atom_site_fract_y
 _atom_site_fract_z
 _atom_site_occupancy
  Co  Co0  1  0.00000000  0.00000000  0.83360669  1
  Mo  Mo1  1  0.66666667  0.33333333  0.33313696  1
  Sb  Sb2  1  0.33333333  0.66666667  0.83325634  1
