# generated using pymatgen
data_HoThB4
_symmetry_space_group_name_H-M   'P 1'
_cell_length_a   3.29417856
_cell_length_b   3.29417856
_cell_length_c   8.08784265
_cell_angle_alpha   90.00000000
_cell_angle_beta   90.00000000
_cell_angle_gamma   120.00000000
_symmetry_Int_Tables_number   1
_chemical_formula_structural   HoThB4
_chemical_formula_sum   'Ho1 Th1 B4'
_cell_volume   76.00770119
_cell_formula_units_Z   1
loop_
 _symmetry_equiv_pos_site_id
 _symmetry_equiv_pos_as_xyz
  1  'x, y, z'
loop_
 _atom_site_type_symbol
 _atom_site_label
 _atom_site_symmetry_multiplicity
 _atom_site_fract_x
 _atom_site_fract_y
 _atom_site_fract_z
 _atom_site_occupancy
  B  B0  1  0.66666733  0.33333423  0.23589851  1
  B  B1  1  0.33333248  0.66666496  0.23589851  1
  B  B2  1  0.66666733  0.33333423  0.76410117  1
  B  B3  1  0.33333248  0.66666496  0.76410117  1
  Ho  Ho4  1  0.00000000  0.00000000  0.00000000  1
  Th  Th5  1  0.00000000  0.00000000  0.49999984  1
