# generated using pymatgen
data_Rb2PmO4
_symmetry_space_group_name_H-M   'P 1'
_cell_length_a   7.65704092
_cell_length_b   7.65704092
_cell_length_c   7.65704092
_cell_angle_alpha   120.00974536
_cell_angle_beta   89.98312136
_cell_angle_gamma   120.00974536
_symmetry_Int_Tables_number   1
_chemical_formula_structural   Rb2PmO4
_chemical_formula_sum   'Rb4 Pm2 O8'
_cell_volume   317.39779776
_cell_formula_units_Z   2
loop_
 _symmetry_equiv_pos_site_id
 _symmetry_equiv_pos_as_xyz
  1  'x, y, z'
loop_
 _atom_site_type_symbol
 _atom_site_label
 _atom_site_symmetry_multiplicity
 _atom_site_fract_x
 _atom_site_fract_y
 _atom_site_fract_z
 _atom_site_occupancy
  O  O0  1  0.11690642  0.23399626  0.35090269  1
  O  O1  1  0.10090282  0.73399552  0.36690582  1
  O  O2  1  0.63290928  0.26600300  0.36690628  1
  O  O3  1  0.63309270  0.73399552  0.36708970  1
  O  O4  1  0.11690642  0.76600411  0.88291053  1
  O  O5  1  0.11708938  0.23399626  0.88309348  1
  O  O6  1  0.64909722  0.76600411  0.88309348  1
  O  O7  1  0.63309408  0.26600300  0.89909708  1
  Pm  Pm8  1  0.00000000  0.00000000  0.00000000  1
  Pm  Pm9  1  0.75000097  0.50000111  0.24999986  1
  Rb  Rb10  1  0.37500072  0.74999982  0.12500016  1
  Rb  Rb11  1  0.37499910  0.74999982  0.62499965  1
  Rb  Rb12  1  0.87500067  0.25000055  0.62500012  1
  Rb  Rb13  1  0.37500025  0.25000055  0.62500081  1
