# generated using pymatgen
data_Nd2AsBr2
_symmetry_space_group_name_H-M   'P 1'
_cell_length_a   4.22176418
_cell_length_b   4.22176418
_cell_length_c   10.73229705
_cell_angle_alpha   90.00000000
_cell_angle_beta   90.00000000
_cell_angle_gamma   120.00000000
_symmetry_Int_Tables_number   1
_chemical_formula_structural   Nd2AsBr2
_chemical_formula_sum   'Nd2 As1 Br2'
_cell_volume   165.65755917
_cell_formula_units_Z   1
loop_
 _symmetry_equiv_pos_site_id
 _symmetry_equiv_pos_as_xyz
  1  'x, y, z'
loop_
 _atom_site_type_symbol
 _atom_site_label
 _atom_site_symmetry_multiplicity
 _atom_site_fract_x
 _atom_site_fract_y
 _atom_site_fract_z
 _atom_site_occupancy
  As  As0  1  0.00000000  0.00000000  0.00000000  1
  Br  Br1  1  0.33333379  0.66666757  0.32351602  1
  Br  Br2  1  0.66666640  0.33333379  0.67648426  1
  Nd  Nd3  1  0.66666640  0.33333379  0.15321324  1
  Nd  Nd4  1  0.33333379  0.66666757  0.84678704  1
