# generated using pymatgen
data_Sc(B3Mo)2
_symmetry_space_group_name_H-M   'P 1'
_cell_length_a   3.31829799
_cell_length_b   5.32710683
_cell_length_c   5.32711213
_cell_angle_alpha   120.00001351
_cell_angle_beta   89.99975452
_cell_angle_gamma   90.00012268
_symmetry_Int_Tables_number   1
_chemical_formula_structural   Sc(B3Mo)2
_chemical_formula_sum   'Sc1 B6 Mo2'
_cell_volume   81.55098314
_cell_formula_units_Z   1
loop_
 _symmetry_equiv_pos_site_id
 _symmetry_equiv_pos_as_xyz
  1  'x, y, z'
loop_
 _atom_site_type_symbol
 _atom_site_label
 _atom_site_symmetry_multiplicity
 _atom_site_fract_x
 _atom_site_fract_y
 _atom_site_fract_z
 _atom_site_occupancy
  Sc  Sc0  1  0.00000000  0.00000000  0.99999900  1
  B  B1  1  0.50000000  0.33482068  0.33481968  1
  B  B2  1  0.50000100  0.66517932  0.66517932  1
  B  B3  1  0.50000100  1.00000000  0.66517932  1
  B  B4  1  0.50000000  0.66517932  0.99999900  1
  B  B5  1  0.50000100  0.33482068  1.00000000  1
  B  B6  1  0.49999900  0.00000000  0.33481968  1
  Mo  Mo7  1  0.00000200  0.33333300  0.66666700  1
  Mo  Mo8  1  0.99999800  0.66666700  0.33333300  1
