# generated using pymatgen
data_Ni3PdN
_symmetry_space_group_name_H-M   'P 1'
_cell_length_a   4.39146550
_cell_length_b   4.39146550
_cell_length_c   4.39146550
_cell_angle_alpha   110.44823601
_cell_angle_beta   110.44823601
_cell_angle_gamma   110.44823601
_symmetry_Int_Tables_number   1
_chemical_formula_structural   Ni3PdN
_chemical_formula_sum   'Ni3 Pd1 N1'
_cell_volume   62.72494512
_cell_formula_units_Z   1
loop_
 _symmetry_equiv_pos_site_id
 _symmetry_equiv_pos_as_xyz
  1  'x, y, z'
loop_
 _atom_site_type_symbol
 _atom_site_label
 _atom_site_symmetry_multiplicity
 _atom_site_fract_x
 _atom_site_fract_y
 _atom_site_fract_z
 _atom_site_occupancy
  Ni  Ni0  1  0.73858052  0.16147426  0.73858052  1
  Ni  Ni1  1  0.16147426  0.73858052  0.73858052  1
  Ni  Ni2  1  0.73858052  0.73858052  0.16147426  1
  Pd  Pd3  1  0.36633881  0.36633881  0.36633881  1
  N  N4  1  0.87002590  0.87002590  0.87002590  1
