# generated using pymatgen
data_KNaAsAu
_symmetry_space_group_name_H-M   'P 1'
_cell_length_a   5.86050178
_cell_length_b   6.01660889
_cell_length_c   6.23360677
_cell_angle_alpha   90.00000000
_cell_angle_beta   104.41692869
_cell_angle_gamma   90.00000000
_symmetry_Int_Tables_number   1
_chemical_formula_structural   KNaAsAu
_chemical_formula_sum   'K2 Na2 As2 Au2'
_cell_volume   212.87758460
_cell_formula_units_Z   2
loop_
 _symmetry_equiv_pos_site_id
 _symmetry_equiv_pos_as_xyz
  1  'x, y, z'
loop_
 _atom_site_type_symbol
 _atom_site_label
 _atom_site_symmetry_multiplicity
 _atom_site_fract_x
 _atom_site_fract_y
 _atom_site_fract_z
 _atom_site_occupancy
  As  As0  1  0.25242737  0.75000055  0.29194302  1
  As  As1  1  0.74757347  0.24999963  0.70805561  1
  Au  Au2  1  0.00000000  0.00000000  0.00000000  1
  Au  Au3  1  0.00000000  0.49999926  0.00000000  1
  K  K4  1  0.53923472  0.24999963  0.17259844  1
  K  K5  1  0.46076656  0.75000055  0.82740185  1
  Na  Na6  1  0.83179278  0.75000055  0.49167773  1
  Na  Na7  1  0.16820679  0.24999963  0.50832256  1
