# generated using pymatgen
data_Tb4Pm2Te3N2
_symmetry_space_group_name_H-M   'P 1'
_cell_length_a   4.61770800
_cell_length_b   4.61770800
_cell_length_c   13.36103344
_cell_angle_alpha   99.95095059
_cell_angle_beta   99.95095059
_cell_angle_gamma   90.00000000
_symmetry_Int_Tables_number   1
_chemical_formula_structural   Tb4Pm2Te3N2
_chemical_formula_sum   'Tb4 Pm2 Te3 N2'
_cell_volume   276.26180982
_cell_formula_units_Z   1
loop_
 _symmetry_equiv_pos_site_id
 _symmetry_equiv_pos_as_xyz
  1  'x, y, z'
loop_
 _atom_site_type_symbol
 _atom_site_label
 _atom_site_symmetry_multiplicity
 _atom_site_fract_x
 _atom_site_fract_y
 _atom_site_fract_z
 _atom_site_occupancy
  Tb  Tb0  1  0.41477826  0.91477926  0.82955751  1
  Tb  Tb1  1  0.91477826  0.41477926  0.82955751  1
  Tb  Tb2  1  0.08522174  0.58522074  0.17044249  1
  Tb  Tb3  1  0.58522174  0.08522074  0.17044249  1
  Pm  Pm4  1  0.30406087  0.30405987  0.60812073  1
  Pm  Pm5  1  0.69593913  0.69594013  0.39187927  1
  Te  Te6  1  0.00000000  0.00000000  0.00000000  1
  Te  Te7  1  0.17643178  0.17643078  0.35286257  1
  Te  Te8  1  0.82356822  0.82356922  0.64713743  1
  N  N9  1  0.39719868  0.39719868  0.79439735  1
  N  N10  1  0.60280132  0.60280132  0.20560265  1
