# generated using pymatgen
data_Tl(AuO)2
_symmetry_space_group_name_H-M   'P 1'
_cell_length_a   5.69924561
_cell_length_b   6.37611452
_cell_length_c   6.37611452
_cell_angle_alpha   102.33787269
_cell_angle_beta   110.48497465
_cell_angle_gamma   110.48497464
_symmetry_Int_Tables_number   1
_chemical_formula_structural   Tl(AuO)2
_chemical_formula_sum   'Tl2 Au4 O4'
_cell_volume   187.81534109
_cell_formula_units_Z   2
loop_
 _symmetry_equiv_pos_site_id
 _symmetry_equiv_pos_as_xyz
  1  'x, y, z'
loop_
 _atom_site_type_symbol
 _atom_site_label
 _atom_site_symmetry_multiplicity
 _atom_site_fract_x
 _atom_site_fract_y
 _atom_site_fract_z
 _atom_site_occupancy
  Tl  Tl0  1  0.25000000  0.88233703  0.11766297  1
  Tl  Tl1  1  0.75000000  0.11766297  0.88233703  1
  Au  Au2  1  0.00000000  0.50000000  0.50000000  1
  Au  Au3  1  -0.00000000  -0.00000000  0.50000000  1
  Au  Au4  1  0.50000000  0.50000000  0.50000000  1
  Au  Au5  1  0.50000000  0.50000000  -0.00000000  1
  O  O6  1  0.28193496  0.29338345  0.13720788  1
  O  O7  1  0.71806504  0.70661655  0.86279212  1
  O  O8  1  0.21806504  0.86279212  0.70661655  1
  O  O9  1  0.78193496  0.13720788  0.29338345  1
