# generated using pymatgen
data_YAsPd
_symmetry_space_group_name_H-M   'P 1'
_cell_length_a   7.02918057
_cell_length_b   4.14593231
_cell_length_c   7.96275349
_cell_angle_alpha   90.00000000
_cell_angle_beta   90.00000000
_cell_angle_gamma   90.00000000
_symmetry_Int_Tables_number   1
_chemical_formula_structural   YAsPd
_chemical_formula_sum   'Y4 As4 Pd4'
_cell_volume   232.05459791
_cell_formula_units_Z   4
loop_
 _symmetry_equiv_pos_site_id
 _symmetry_equiv_pos_as_xyz
  1  'x, y, z'
loop_
 _atom_site_type_symbol
 _atom_site_label
 _atom_site_symmetry_multiplicity
 _atom_site_fract_x
 _atom_site_fract_y
 _atom_site_fract_z
 _atom_site_occupancy
  As  As0  1  0.24730336  0.24999926  0.12147808  1
  As  As1  1  0.74730332  0.24999926  0.37852233  1
  As  As2  1  0.25269802  0.75000019  0.62147849  1
  As  As3  1  0.75269798  0.75000019  0.87852274  1
  Pd  Pd4  1  0.85546671  0.24999926  0.06194340  1
  Pd  Pd5  1  0.35546533  0.24999926  0.43805701  1
  Pd  Pd6  1  0.64453459  0.75000019  0.56194381  1
  Pd  Pd7  1  0.14453463  0.75000019  0.93805742  1
  Y  Y8  1  0.52918259  0.75000019  0.18875506  1
  Y  Y9  1  0.02918121  0.75000019  0.31124535  1
  Y  Y10  1  0.97081871  0.24999926  0.68875547  1
  Y  Y11  1  0.47081875  0.24999926  0.81124576  1
