# generated using pymatgen
data_Zr2ReSi2
_symmetry_space_group_name_H-M   'P 1'
_cell_length_a   6.56284256
_cell_length_b   6.56284256
_cell_length_c   3.92049458
_cell_angle_alpha   90.00000000
_cell_angle_beta   90.00000000
_cell_angle_gamma   90.00000000
_symmetry_Int_Tables_number   1
_chemical_formula_structural   Zr2ReSi2
_chemical_formula_sum   'Zr4 Re2 Si4'
_cell_volume   168.85923946
_cell_formula_units_Z   2
loop_
 _symmetry_equiv_pos_site_id
 _symmetry_equiv_pos_as_xyz
  1  'x, y, z'
loop_
 _atom_site_type_symbol
 _atom_site_label
 _atom_site_symmetry_multiplicity
 _atom_site_fract_x
 _atom_site_fract_y
 _atom_site_fract_z
 _atom_site_occupancy
  Re  Re0  1  0.00000000  0.00000000  0.00000000  1
  Re  Re1  1  0.49999981  0.49999981  0.00000000  1
  Si  Si2  1  0.63142152  0.13142171  0.00000000  1
  Si  Si3  1  0.13142171  0.36857809  0.00000000  1
  Si  Si4  1  0.86857790  0.63142152  0.00000000  1
  Si  Si5  1  0.36857809  0.86857790  0.00000000  1
  Zr  Zr6  1  0.32720578  0.17279403  0.50000069  1
  Zr  Zr7  1  0.82720558  0.32720578  0.50000069  1
  Zr  Zr8  1  0.17279403  0.67279383  0.50000069  1
  Zr  Zr9  1  0.67279383  0.82720558  0.50000069  1
