# generated using pymatgen
data_Al2Si2Au
_symmetry_space_group_name_H-M   'P 1'
_cell_length_a   3.38919490
_cell_length_b   3.38919490
_cell_length_c   7.79089898
_cell_angle_alpha   77.43718216
_cell_angle_beta   77.43718216
_cell_angle_gamma   90.00000000
_symmetry_Int_Tables_number   1
_chemical_formula_structural   Al2Si2Au
_chemical_formula_sum   'Al2 Si2 Au1'
_cell_volume   85.15219526
_cell_formula_units_Z   1
loop_
 _symmetry_equiv_pos_site_id
 _symmetry_equiv_pos_as_xyz
  1  'x, y, z'
loop_
 _atom_site_type_symbol
 _atom_site_label
 _atom_site_symmetry_multiplicity
 _atom_site_fract_x
 _atom_site_fract_y
 _atom_site_fract_z
 _atom_site_occupancy
  Si  Si0  1  0.75000000  0.25000000  0.50000000  1
  Si  Si1  1  0.25000000  0.75000000  0.50000000  1
  Au  Au2  1  0.00000000  0.00000000  0.00000000  1
  Al  Al3  1  0.39865575  0.39865575  0.20268850  1
  Al  Al4  1  0.60134425  0.60134425  0.79731150  1
