# generated using pymatgen
data_Np3(P2Pd)2
_symmetry_space_group_name_H-M   'P 1'
_cell_length_a   3.93003877
_cell_length_b   6.52278136
_cell_length_c   7.42456456
_cell_angle_alpha   111.56782847
_cell_angle_beta   105.34674440
_cell_angle_gamma   89.99934659
_symmetry_Int_Tables_number   1
_chemical_formula_structural   Np3(P2Pd)2
_chemical_formula_sum   'Np3 P4 Pd2'
_cell_volume   169.68233323
_cell_formula_units_Z   1
loop_
 _symmetry_equiv_pos_site_id
 _symmetry_equiv_pos_as_xyz
  1  'x, y, z'
loop_
 _atom_site_type_symbol
 _atom_site_label
 _atom_site_symmetry_multiplicity
 _atom_site_fract_x
 _atom_site_fract_y
 _atom_site_fract_z
 _atom_site_occupancy
  Np  Np0  1  0.13757949  0.57325267  0.27516620  1
  Np  Np1  1  0.86242051  0.42674733  0.72483380  1
  Np  Np2  1  0.00000000  0.00000000  0.00000000  1
  P  P3  1  0.50940338  0.69058232  0.01877031  1
  P  P4  1  0.20967898  0.23861112  0.41935212  1
  P  P5  1  0.49059662  0.30941768  0.98122969  1
  P  P6  1  0.79032102  0.76138888  0.58064788  1
  Pd  Pd7  1  0.67574949  0.98657411  0.35146368  1
  Pd  Pd8  1  0.32425051  0.01342589  0.64853632  1
