# generated using pymatgen
data_PmNbCoN3
_symmetry_space_group_name_H-M   'P 1'
_cell_length_a   3.20573179
_cell_length_b   6.78312849
_cell_length_c   7.26528858
_cell_angle_alpha   105.32263408
_cell_angle_beta   90.00000000
_cell_angle_gamma   90.00000000
_symmetry_Int_Tables_number   1
_chemical_formula_structural   PmNbCoN3
_chemical_formula_sum   'Pm2 Nb2 Co2 N6'
_cell_volume   152.36710369
_cell_formula_units_Z   2
loop_
 _symmetry_equiv_pos_site_id
 _symmetry_equiv_pos_as_xyz
  1  'x, y, z'
loop_
 _atom_site_type_symbol
 _atom_site_label
 _atom_site_symmetry_multiplicity
 _atom_site_fract_x
 _atom_site_fract_y
 _atom_site_fract_z
 _atom_site_occupancy
  Pm  Pm0  1  0.75000000  0.80478483  0.78035790  1
  Pm  Pm1  1  0.25000000  0.19521517  0.21964210  1
  Nb  Nb2  1  0.25000000  0.67048809  0.15527336  1
  Nb  Nb3  1  0.75000000  0.32951191  0.84472664  1
  Co  Co4  1  0.25000000  0.10213945  0.59606900  1
  Co  Co5  1  0.75000000  0.89786055  0.40393100  1
  N  N6  1  0.25000000  0.80023222  0.49684634  1
  N  N7  1  0.75000000  0.88025115  0.13144037  1
  N  N8  1  0.75000000  0.44266697  0.14770123  1
  N  N9  1  0.75000000  0.19976778  0.50315366  1
  N  N10  1  0.25000000  0.55733303  0.85229877  1
  N  N11  1  0.25000000  0.11974885  0.86855963  1
