# generated using pymatgen
data_PdF6
_symmetry_space_group_name_H-M   'P 1'
_cell_length_a   4.87158440
_cell_length_b   4.87158440
_cell_length_c   4.87158440
_cell_angle_alpha   55.34269600
_cell_angle_beta   55.34269600
_cell_angle_gamma   55.34269600
_symmetry_Int_Tables_number   1
_chemical_formula_structural   PdF6
_chemical_formula_sum   'Pd1 F6'
_cell_volume   72.90541834
_cell_formula_units_Z   1
loop_
 _symmetry_equiv_pos_site_id
 _symmetry_equiv_pos_as_xyz
  1  'x, y, z'
loop_
 _atom_site_type_symbol
 _atom_site_label
 _atom_site_symmetry_multiplicity
 _atom_site_fract_x
 _atom_site_fract_y
 _atom_site_fract_z
 _atom_site_occupancy
  F  F0  1  0.74364304  0.42784892  0.08806733  1
  F  F1  1  0.57215086  0.91193321  0.25635643  1
  F  F2  1  0.08806718  0.74364365  0.42784846  1
  F  F3  1  0.91193275  0.25635628  0.57215147  1
  F  F4  1  0.42784907  0.08806672  0.74364350  1
  F  F5  1  0.25635689  0.57215101  0.91193260  1
  Pd  Pd6  1  0.00000000  0.00000000  0.00000000  1
