# generated using pymatgen
data_Tm2CuP
_symmetry_space_group_name_H-M   'P 1'
_cell_length_a   3.70922349
_cell_length_b   3.70922349
_cell_length_c   9.03825057
_cell_angle_alpha   78.15903429
_cell_angle_beta   78.15903428
_cell_angle_gamma   59.99999993
_symmetry_Int_Tables_number   1
_chemical_formula_structural   Tm2CuP
_chemical_formula_sum   'Tm2 Cu1 P1'
_cell_volume   104.62481327
_cell_formula_units_Z   1
loop_
 _symmetry_equiv_pos_site_id
 _symmetry_equiv_pos_as_xyz
  1  'x, y, z'
loop_
 _atom_site_type_symbol
 _atom_site_label
 _atom_site_symmetry_multiplicity
 _atom_site_fract_x
 _atom_site_fract_y
 _atom_site_fract_z
 _atom_site_occupancy
  P  P0  1  0.50000000  0.50000000  0.50000000  1
  Tm  Tm1  1  0.10536277  0.10536277  0.68391270  1
  Tm  Tm2  1  0.89463723  0.89463723  0.31608730  1
  Cu  Cu3  1  0.00000000  0.00000000  0.00000000  1
