# generated using pymatgen
data_HgF3
_symmetry_space_group_name_H-M   'P 1'
_cell_length_a   4.42873158
_cell_length_b   4.42873158
_cell_length_c   5.66116823
_cell_angle_alpha   102.88314607
_cell_angle_beta   102.88314607
_cell_angle_gamma   74.87605047
_symmetry_Int_Tables_number   1
_chemical_formula_structural   HgF3
_chemical_formula_sum   'Hg2 F6'
_cell_volume   102.87749745
_cell_formula_units_Z   2
loop_
 _symmetry_equiv_pos_site_id
 _symmetry_equiv_pos_as_xyz
  1  'x, y, z'
loop_
 _atom_site_type_symbol
 _atom_site_label
 _atom_site_symmetry_multiplicity
 _atom_site_fract_x
 _atom_site_fract_y
 _atom_site_fract_z
 _atom_site_occupancy
  F  F0  1  0.17118958  0.82880952  0.00000000  1
  F  F1  1  0.41013694  0.10198450  0.08654269  1
  F  F2  1  0.90167340  0.24213684  0.31078766  1
  F  F3  1  0.31897244  0.68102798  0.49999925  1
  F  F4  1  0.75786257  0.09832601  0.68921268  1
  F  F5  1  0.89801491  0.58986247  0.91345766  1
  Hg  Hg6  1  0.75892350  0.75040642  0.32252988  1
  Hg  Hg7  1  0.24959299  0.24107591  0.67747047  1
