# generated using pymatgen
data_PmBr4
_symmetry_space_group_name_H-M   'P 1'
_cell_length_a   5.78294465
_cell_length_b   5.79352012
_cell_length_c   20.60144473
_cell_angle_alpha   90.00000000
_cell_angle_beta   90.00000000
_cell_angle_gamma   89.99999921
_symmetry_Int_Tables_number   1
_chemical_formula_structural   PmBr4
_chemical_formula_sum   'Pm1 Br4'
_cell_volume   690.22269103
_cell_formula_units_Z   1
loop_
 _symmetry_equiv_pos_site_id
 _symmetry_equiv_pos_as_xyz
  1  'x, y, z'
loop_
 _atom_site_type_symbol
 _atom_site_label
 _atom_site_symmetry_multiplicity
 _atom_site_fract_x
 _atom_site_fract_y
 _atom_site_fract_z
 _atom_site_occupancy
  Pm  Pm0  1  0.50000001  0.91820451  0.50000001  1
  Br  Br1  1  0.50000000  0.87247451  0.63594786  1
  Br  Br2  1  0.50000000  0.87247448  0.36405213  1
  Br  Br3  1  0.49999999  0.41233954  0.50000000  1
  Br  Br4  1  0.00000000  0.90776298  0.50000000  1
