# generated using pymatgen
data_HC2
_symmetry_space_group_name_H-M   'P 1'
_cell_length_a   4.25322267
_cell_length_b   2.49222355
_cell_length_c   6.52407417
_cell_angle_alpha   90.00000000
_cell_angle_beta   91.64279026
_cell_angle_gamma   90.00000000
_symmetry_Int_Tables_number   1
_chemical_formula_structural   HC2
_chemical_formula_sum   'H2 C4'
_cell_volume   69.12664289
_cell_formula_units_Z   2
loop_
 _symmetry_equiv_pos_site_id
 _symmetry_equiv_pos_as_xyz
  1  'x, y, z'
loop_
 _atom_site_type_symbol
 _atom_site_label
 _atom_site_symmetry_multiplicity
 _atom_site_fract_x
 _atom_site_fract_y
 _atom_site_fract_z
 _atom_site_occupancy
  H  H0  1  0.00000000  0.50000000  0.00000000  1
  H  H1  1  0.00000000  0.00000000  0.50000000  1
  C  C2  1  0.00000436  0.00000000  0.70783608  1
  C  C3  1  0.99999564  0.00000000  0.29216392  1
  C  C4  1  0.00000436  0.50000000  0.20783608  1
  C  C5  1  0.99999564  0.50000000  0.79216392  1
