# generated using pymatgen
data_Gd(AsPd)2
_symmetry_space_group_name_H-M   'P 1'
_cell_length_a   4.40118218
_cell_length_b   4.40118218
_cell_length_c   9.88448543
_cell_angle_alpha   90.00000000
_cell_angle_beta   90.00000000
_cell_angle_gamma   90.00000000
_symmetry_Int_Tables_number   1
_chemical_formula_structural   Gd(AsPd)2
_chemical_formula_sum   'Gd2 As4 Pd4'
_cell_volume   191.46648199
_cell_formula_units_Z   2
loop_
 _symmetry_equiv_pos_site_id
 _symmetry_equiv_pos_as_xyz
  1  'x, y, z'
loop_
 _atom_site_type_symbol
 _atom_site_label
 _atom_site_symmetry_multiplicity
 _atom_site_fract_x
 _atom_site_fract_y
 _atom_site_fract_z
 _atom_site_occupancy
  As  As0  1  0.00000000  0.00000000  0.00000000  1
  As  As1  1  0.49999975  0.49999975  0.00000000  1
  As  As2  1  0.49999975  0.00000000  0.36867271  1
  As  As3  1  0.00000000  0.49999975  0.63132776  1
  Gd  Gd4  1  0.00000000  0.49999975  0.24922693  1
  Gd  Gd5  1  0.49999975  0.00000000  0.75077353  1
  Pd  Pd6  1  0.49999975  0.00000000  0.12316676  1
  Pd  Pd7  1  0.00000000  0.00000000  0.49999973  1
  Pd  Pd8  1  0.49999975  0.49999975  0.49999973  1
  Pd  Pd9  1  0.00000000  0.49999975  0.87683371  1
