# generated using pymatgen
data_InTe4PtAu3
_symmetry_space_group_name_H-M   'P 1'
_cell_length_a   6.49042562
_cell_length_b   6.49042562
_cell_length_c   6.49042562
_cell_angle_alpha   90.00000000
_cell_angle_beta   90.00000000
_cell_angle_gamma   90.00000000
_symmetry_Int_Tables_number   1
_chemical_formula_structural   InTe4PtAu3
_chemical_formula_sum   'In1 Te4 Pt1 Au3'
_cell_volume   273.41323349
_cell_formula_units_Z   1
loop_
 _symmetry_equiv_pos_site_id
 _symmetry_equiv_pos_as_xyz
  1  'x, y, z'
loop_
 _atom_site_type_symbol
 _atom_site_label
 _atom_site_symmetry_multiplicity
 _atom_site_fract_x
 _atom_site_fract_y
 _atom_site_fract_z
 _atom_site_occupancy
  Au  Au0  1  0.49999957  0.49999957  0.00000000  1
  Au  Au1  1  0.49999957  0.00000000  0.49999957  1
  Au  Au2  1  0.00000000  0.49999957  0.49999957  1
  In  In3  1  0.00000000  0.00000000  0.00000000  1
  Pt  Pt4  1  0.49999957  0.49999957  0.49999957  1
  Te  Te5  1  0.25803701  0.25803701  0.25803701  1
  Te  Te6  1  0.74196367  0.74196367  0.25803701  1
  Te  Te7  1  0.74196367  0.25803701  0.74196367  1
  Te  Te8  1  0.25803701  0.74196367  0.74196367  1
