# generated using pymatgen
data_TePd6
_symmetry_space_group_name_H-M   'P 1'
_cell_length_a   4.52401323
_cell_length_b   4.52401265
_cell_length_c   6.96138630
_cell_angle_alpha   71.03819871
_cell_angle_beta   71.03819665
_cell_angle_gamma   60.00010203
_symmetry_Int_Tables_number   1
_chemical_formula_structural   TePd6
_chemical_formula_sum   'Te1 Pd6'
_cell_volume   114.37386574
_cell_formula_units_Z   1
loop_
 _symmetry_equiv_pos_site_id
 _symmetry_equiv_pos_as_xyz
  1  'x, y, z'
loop_
 _atom_site_type_symbol
 _atom_site_label
 _atom_site_symmetry_multiplicity
 _atom_site_fract_x
 _atom_site_fract_y
 _atom_site_fract_z
 _atom_site_occupancy
  Te  Te0  1  0.00000000  0.00000000  0.00000000  1
  Pd  Pd1  1  0.71228080  0.71228080  0.86315761  1
  Pd  Pd2  1  0.43259914  0.43259914  0.70220357  1
  Pd  Pd3  1  0.14044420  0.14044420  0.57866740  1
  Pd  Pd4  1  0.85955580  0.85955580  0.42133260  1
  Pd  Pd5  1  0.56740086  0.56740086  0.29779643  1
  Pd  Pd6  1  0.28771920  0.28771920  0.13684239  1
