# generated using pymatgen
data_Pm5(TlCd)2
_symmetry_space_group_name_H-M   'P 1'
_cell_length_a   7.88390719
_cell_length_b   8.45284022
_cell_length_c   9.38014673
_cell_angle_alpha   116.78031112
_cell_angle_beta   90.00000000
_cell_angle_gamma   90.00000000
_symmetry_Int_Tables_number   1
_chemical_formula_structural   Pm5(TlCd)2
_chemical_formula_sum   'Pm10 Tl4 Cd4'
_cell_volume   558.05773382
_cell_formula_units_Z   2
loop_
 _symmetry_equiv_pos_site_id
 _symmetry_equiv_pos_as_xyz
  1  'x, y, z'
loop_
 _atom_site_type_symbol
 _atom_site_label
 _atom_site_symmetry_multiplicity
 _atom_site_fract_x
 _atom_site_fract_y
 _atom_site_fract_z
 _atom_site_occupancy
  Pm  Pm0  1  0.00000000  0.00000000  0.00000000  1
  Pm  Pm1  1  0.50000000  0.50000000  0.00000000  1
  Pm  Pm2  1  0.82943317  0.82851992  0.28047301  1
  Pm  Pm3  1  0.17056683  0.45195308  0.28047301  1
  Pm  Pm4  1  0.32943317  0.95195308  0.28047301  1
  Pm  Pm5  1  0.67056683  0.32851992  0.28047301  1
  Pm  Pm6  1  0.17056683  0.17148008  0.71952699  1
  Pm  Pm7  1  0.82943317  0.54804692  0.71952699  1
  Pm  Pm8  1  0.67056683  0.04804692  0.71952699  1
  Pm  Pm9  1  0.32943317  0.67148008  0.71952699  1
  Tl  Tl10  1  0.62161153  0.86716437  1.00000000  1
  Tl  Tl11  1  0.37838847  0.13283563  0.00000000  1
  Tl  Tl12  1  0.12161153  0.63283563  0.00000000  1
  Tl  Tl13  1  0.87838847  0.36716437  1.00000000  1
  Cd  Cd14  1  0.00000000  0.21200853  0.42401707  1
  Cd  Cd15  1  0.50000000  0.71200853  0.42401707  1
  Cd  Cd16  1  0.00000000  0.78799147  0.57598293  1
  Cd  Cd17  1  0.50000000  0.28799147  0.57598293  1
