# generated using pymatgen
data_YCo2TcB
_symmetry_space_group_name_H-M   'P 1'
_cell_length_a   4.04548792
_cell_length_b   4.04548792
_cell_length_c   4.19798378
_cell_angle_alpha   90.00000000
_cell_angle_beta   90.00000000
_cell_angle_gamma   90.00000000
_symmetry_Int_Tables_number   1
_chemical_formula_structural   YCo2TcB
_chemical_formula_sum   'Y1 Co2 Tc1 B1'
_cell_volume   68.70408714
_cell_formula_units_Z   1
loop_
 _symmetry_equiv_pos_site_id
 _symmetry_equiv_pos_as_xyz
  1  'x, y, z'
loop_
 _atom_site_type_symbol
 _atom_site_label
 _atom_site_symmetry_multiplicity
 _atom_site_fract_x
 _atom_site_fract_y
 _atom_site_fract_z
 _atom_site_occupancy
  Y  Y0  1  0.50000000  0.50000000  0.50000000  1
  B  B1  1  0.00000000  0.00000000  0.00000000  1
  Co  Co2  1  0.00000000  0.50000000  0.00000000  1
  Co  Co3  1  0.50000000  0.00000000  0.00000000  1
  Tc  Tc4  1  0.00000000  0.00000000  0.50000000  1
