# generated using pymatgen
data_Pm4Al3
_symmetry_space_group_name_H-M   'P 1'
_cell_length_a   5.17854984
_cell_length_b   5.17855011
_cell_length_c   8.94480263
_cell_angle_alpha   73.17361391
_cell_angle_beta   73.17361263
_cell_angle_gamma   59.99999909
_symmetry_Int_Tables_number   1
_chemical_formula_structural   Pm4Al3
_chemical_formula_sum   'Pm4 Al3'
_cell_volume   195.79032955
_cell_formula_units_Z   1
loop_
 _symmetry_equiv_pos_site_id
 _symmetry_equiv_pos_as_xyz
  1  'x, y, z'
loop_
 _atom_site_type_symbol
 _atom_site_label
 _atom_site_symmetry_multiplicity
 _atom_site_fract_x
 _atom_site_fract_y
 _atom_site_fract_z
 _atom_site_occupancy
  Pm  Pm0  1  0.61956830  0.61956830  0.14129510  1
  Pm  Pm1  1  0.87151146  0.87151146  0.38546661  1
  Pm  Pm2  1  0.12848854  0.12848854  0.61453339  1
  Pm  Pm3  1  0.38043170  0.38043170  0.85870490  1
  Al  Al4  1  0.25262888  0.25262888  0.24211436  1
  Al  Al5  1  0.74737112  0.74737112  0.75788564  1
  Al  Al6  1  0.00000000  0.00000000  0.00000000  1
