# generated using pymatgen
data_CuB2Os
_symmetry_space_group_name_H-M   'P 1'
_cell_length_a   4.72781942
_cell_length_b   4.72781942
_cell_length_c   5.77279667
_cell_angle_alpha   65.82712021
_cell_angle_beta   65.82712021
_cell_angle_gamma   90.00000000
_symmetry_Int_Tables_number   1
_chemical_formula_structural   CuB2Os
_chemical_formula_sum   'Cu2 B4 Os2'
_cell_volume   105.19600442
_cell_formula_units_Z   2
loop_
 _symmetry_equiv_pos_site_id
 _symmetry_equiv_pos_as_xyz
  1  'x, y, z'
loop_
 _atom_site_type_symbol
 _atom_site_label
 _atom_site_symmetry_multiplicity
 _atom_site_fract_x
 _atom_site_fract_y
 _atom_site_fract_z
 _atom_site_occupancy
  B  B0  1  0.64222731  0.12500000  0.25000000  1
  B  B1  1  0.10777269  0.62500000  0.25000000  1
  B  B2  1  0.37500000  0.35777269  0.75000000  1
  B  B3  1  0.87500000  0.89222731  0.75000000  1
  Os  Os4  1  0.00000000  0.00000000  0.00000000  1
  Os  Os5  1  0.75000000  0.25000000  0.50000000  1
  Cu  Cu6  1  0.50000000  0.50000000  0.00000000  1
  Cu  Cu7  1  0.25000000  0.75000000  0.50000000  1
