# generated using pymatgen
data_K3Bi5Br12
_symmetry_space_group_name_H-M   'P 1'
_cell_length_a   16.68406999
_cell_length_b   16.68406999
_cell_length_c   16.68406999
_cell_angle_alpha   109.47122065
_cell_angle_beta   109.47122063
_cell_angle_gamma   109.47122062
_symmetry_Int_Tables_number   1
_chemical_formula_structural   K3Bi5Br12
_chemical_formula_sum   'K12 Bi20 Br48'
_cell_volume   3575.06644938
_cell_formula_units_Z   4
loop_
 _symmetry_equiv_pos_site_id
 _symmetry_equiv_pos_as_xyz
  1  'x, y, z'
loop_
 _atom_site_type_symbol
 _atom_site_label
 _atom_site_symmetry_multiplicity
 _atom_site_fract_x
 _atom_site_fract_y
 _atom_site_fract_z
 _atom_site_occupancy
  K  K0  1  0.75000000  0.37500000  0.12500000  1
  K  K1  1  0.87500000  0.75000000  0.12500000  1
  K  K2  1  0.37500000  0.75000000  0.62500000  1
  K  K3  1  0.25000000  0.12500000  0.37500000  1
  K  K4  1  0.87500000  0.12500000  0.25000000  1
  K  K5  1  0.37500000  0.62500000  0.25000000  1
  K  K6  1  0.62500000  0.37500000  0.75000000  1
  K  K7  1  0.12500000  0.87500000  0.75000000  1
  K  K8  1  0.75000000  0.87500000  0.62500000  1
  K  K9  1  0.62500000  0.25000000  0.37500000  1
  K  K10  1  0.12500000  0.25000000  0.87500000  1
  K  K11  1  0.25000000  0.62500000  0.87500000  1
  Bi  Bi12  1  0.12500000  0.37500000  0.25000000  1
  Bi  Bi13  1  -0.00000000  0.50000000  0.00000000  1
  Bi  Bi14  1  0.00000000  0.00000000  0.00000000  1
  Bi  Bi15  1  0.37500000  0.25000000  0.12500000  1
  Bi  Bi16  1  0.50000000  0.00000000  0.50000000  1
  Bi  Bi17  1  0.50000000  0.50000000  0.00000000  1
  Bi  Bi18  1  0.12500000  0.75000000  0.37500000  1
  Bi  Bi19  1  0.75000000  0.12500000  0.87500000  1
  Bi  Bi20  1  0.75000000  0.62500000  0.37500000  1
  Bi  Bi21  1  0.37500000  0.12500000  0.75000000  1
  Bi  Bi22  1  0.62500000  0.87500000  0.25000000  1
  Bi  Bi23  1  0.50000000  0.50000000  0.50000000  1
  Bi  Bi24  1  0.50000000  0.00000000  0.00000000  1
  Bi  Bi25  1  0.00000000  0.00000000  0.50000000  1
  Bi  Bi26  1  0.25000000  0.37500000  0.62500000  1
  Bi  Bi27  1  0.25000000  0.87500000  0.12500000  1
  Bi  Bi28  1  0.00000000  0.50000000  0.50000000  1
  Bi  Bi29  1  0.87500000  0.25000000  0.62500000  1
  Bi  Bi30  1  0.62500000  0.75000000  0.87500000  1
  Bi  Bi31  1  0.87500000  0.62500000  0.75000000  1
  Br  Br32  1  0.69611568  0.11832474  0.02365089  1
  Br  Br33  1  0.32753520  0.52365089  0.40532615  1
  Br  Br34  1  0.97634911  0.38167526  0.30388432  1
  Br  Br35  1  0.52365089  0.19611568  0.11832474  1
  Br  Br36  1  0.57779095  0.69611568  0.67246480  1
  Br  Br37  1  0.97634911  0.59467385  0.17246480  1
  Br  Br38  1  0.32753520  0.80388432  0.42220905  1
  Br  Br39  1  0.09467385  0.92220905  0.11832474  1
  Br  Br40  1  0.59467385  0.97634911  0.67246480  1
  Br  Br41  1  0.69611568  0.57779095  0.17246480  1
  Br  Br42  1  0.80388432  0.47634911  0.38167526  1
  Br  Br43  1  0.82753520  0.90532615  0.02365089  1
  Br  Br44  1  0.11832474  0.69611568  0.52365089  1
  Br  Br45  1  0.38167526  0.40532615  0.07779095  1
  Br  Br46  1  0.07779095  0.90532615  0.38167526  1
  Br  Br47  1  0.42220905  0.11832474  0.59467385  1
  Br  Br48  1  0.07779095  0.17246480  0.19611568  1
  Br  Br49  1  0.47634911  0.67246480  0.09467385  1
  Br  Br50  1  0.82753520  0.92220905  0.30388432  1
  Br  Br51  1  0.11832474  0.42220905  0.09467385  1
  Br  Br52  1  0.38167526  0.97634911  0.80388432  1
  Br  Br53  1  0.59467385  0.61832474  0.42220905  1
  Br  Br54  1  0.90532615  0.82753520  0.52365089  1
  Br  Br55  1  0.80388432  0.32753520  0.92220905  1
  Br  Br56  1  0.40532615  0.38167526  0.57779095  1
  Br  Br57  1  0.09467385  0.17246480  0.47634911  1
  Br  Br58  1  0.19611568  0.67246480  0.07779095  1
  Br  Br59  1  0.17246480  0.07779095  0.69611568  1
  Br  Br60  1  0.61832474  0.02365089  0.19611568  1
  Br  Br61  1  0.88167526  0.57779095  0.90532615  1
  Br  Br62  1  0.52365089  0.32753520  0.90532615  1
  Br  Br63  1  0.57779095  0.88167526  0.40532615  1
  Br  Br64  1  0.92220905  0.82753520  0.80388432  1
  Br  Br65  1  0.92220905  0.09467385  0.61832474  1
  Br  Br66  1  0.88167526  0.30388432  0.47634911  1
  Br  Br67  1  0.17246480  0.09467385  0.97634911  1
  Br  Br68  1  0.61832474  0.59467385  0.92220905  1
  Br  Br69  1  0.40532615  0.02365089  0.32753520  1
  Br  Br70  1  0.30388432  0.42220905  0.82753520  1
  Br  Br71  1  0.19611568  0.52365089  0.61832474  1
  Br  Br72  1  0.90532615  0.07779095  0.88167526  1
  Br  Br73  1  0.67246480  0.19611568  0.57779095  1
  Br  Br74  1  0.47634911  0.80388432  0.88167526  1
  Br  Br75  1  0.02365089  0.40532615  0.82753520  1
  Br  Br76  1  0.42220905  0.30388432  0.32753520  1
  Br  Br77  1  0.02365089  0.61832474  0.69611568  1
  Br  Br78  1  0.67246480  0.47634911  0.59467385  1
  Br  Br79  1  0.30388432  0.88167526  0.97634911  1
