# generated using pymatgen
data_NaHfB4
_symmetry_space_group_name_H-M   'P 1'
_cell_length_a   3.13362631
_cell_length_b   3.13362631
_cell_length_c   7.66199477
_cell_angle_alpha   90.00000000
_cell_angle_beta   90.00000000
_cell_angle_gamma   120.00000000
_symmetry_Int_Tables_number   1
_chemical_formula_structural   NaHfB4
_chemical_formula_sum   'Na1 Hf1 B4'
_cell_volume   65.15787203
_cell_formula_units_Z   1
loop_
 _symmetry_equiv_pos_site_id
 _symmetry_equiv_pos_as_xyz
  1  'x, y, z'
loop_
 _atom_site_type_symbol
 _atom_site_label
 _atom_site_symmetry_multiplicity
 _atom_site_fract_x
 _atom_site_fract_y
 _atom_site_fract_z
 _atom_site_occupancy
  B  B0  1  0.66666566  0.33333333  0.22109517  1
  B  B1  1  0.33333333  0.66666667  0.22109517  1
  B  B2  1  0.66666566  0.33333333  0.77890421  1
  B  B3  1  0.33333333  0.66666667  0.77890421  1
  Hf  Hf4  1  0.00000000  0.00000000  0.00000000  1
  Na  Na5  1  0.00000000  0.00000000  0.50000034  1
