# generated using pymatgen
data_CaTa3I
_symmetry_space_group_name_H-M   'P 1'
_cell_length_a   4.94931875
_cell_length_b   4.94931875
_cell_length_c   4.94931875
_cell_angle_alpha   90.00000000
_cell_angle_beta   90.00000000
_cell_angle_gamma   90.00000000
_symmetry_Int_Tables_number   1
_chemical_formula_structural   CaTa3I
_chemical_formula_sum   'Ca1 Ta3 I1'
_cell_volume   121.23730491
_cell_formula_units_Z   1
loop_
 _symmetry_equiv_pos_site_id
 _symmetry_equiv_pos_as_xyz
  1  'x, y, z'
loop_
 _atom_site_type_symbol
 _atom_site_label
 _atom_site_symmetry_multiplicity
 _atom_site_fract_x
 _atom_site_fract_y
 _atom_site_fract_z
 _atom_site_occupancy
  I  I0  1  0.50000000  0.50000000  0.50000000  1
  Ca  Ca1  1  0.00000000  0.00000000  0.00000000  1
  Ta  Ta2  1  0.00000000  0.50000000  0.00000000  1
  Ta  Ta3  1  0.00000000  0.00000000  0.50000000  1
  Ta  Ta4  1  0.50000000  0.00000000  0.00000000  1
