# generated using pymatgen
data_N3O9F
_symmetry_space_group_name_H-M   'P 1'
_cell_length_a   7.80223548
_cell_length_b   7.80223548
_cell_length_c   7.31254650
_cell_angle_alpha   90.00000000
_cell_angle_beta   90.00000000
_cell_angle_gamma   108.65403018
_symmetry_Int_Tables_number   1
_chemical_formula_structural   N3O9F
_chemical_formula_sum   'N6 O18 F2'
_cell_volume   421.76538802
_cell_formula_units_Z   2
loop_
 _symmetry_equiv_pos_site_id
 _symmetry_equiv_pos_as_xyz
  1  'x, y, z'
loop_
 _atom_site_type_symbol
 _atom_site_label
 _atom_site_symmetry_multiplicity
 _atom_site_fract_x
 _atom_site_fract_y
 _atom_site_fract_z
 _atom_site_occupancy
  N  N0  1  0.12803147  0.76075703  0.08615696  1
  N  N1  1  0.87196853  0.23924297  0.58615696  1
  N  N2  1  0.76075703  0.12803147  0.91384304  1
  N  N3  1  0.23924297  0.87196853  0.41384304  1
  N  N4  1  0.28178983  0.28178983  0.00000000  1
  N  N5  1  0.71821017  0.71821017  0.50000000  1
  O  O6  1  0.27299684  0.13279055  0.91076586  1
  O  O7  1  0.72700316  0.86720945  0.41076586  1
  O  O8  1  0.13279055  0.27299684  0.08923414  1
  O  O9  1  0.86720945  0.72700316  0.58923414  1
  O  O10  1  0.31602251  0.42271179  0.87455988  1
  O  O11  1  0.68397749  0.57728821  0.37455988  1
  O  O12  1  0.42271179  0.31602251  0.12544012  1
  O  O13  1  0.57728821  0.68397749  0.62544012  1
  O  O14  1  0.26352126  0.72860234  0.43699713  1
  O  O15  1  0.73647874  0.27139766  0.93699713  1
  O  O16  1  0.72860234  0.26352126  0.56300287  1
  O  O17  1  0.27139766  0.73647874  0.06300287  1
  O  O18  1  0.28131363  0.01216607  0.49730917  1
  O  O19  1  0.71868637  0.98783393  0.99730917  1
  O  O20  1  0.01216607  0.28131363  0.50269083  1
  O  O21  1  0.98783393  0.71868637  0.00269083  1
  O  O22  1  0.11811001  0.88188999  0.25000000  1
  O  O23  1  0.88188999  0.11811001  0.75000000  1
  F  F24  1  0.55566911  0.55566911  0.00000000  1
  F  F25  1  0.44433089  0.44433089  0.50000000  1
