# generated using pymatgen
data_B13H19
_symmetry_space_group_name_H-M   'P 1'
_cell_length_a   6.62051670
_cell_length_b   9.20791490
_cell_length_c   19.92450257
_cell_angle_alpha   97.60657674
_cell_angle_beta   90.00000000
_cell_angle_gamma   90.00000000
_symmetry_Int_Tables_number   1
_chemical_formula_structural   B13H19
_chemical_formula_sum   'B52 H76'
_cell_volume   1203.93244262
_cell_formula_units_Z   4
loop_
 _symmetry_equiv_pos_site_id
 _symmetry_equiv_pos_as_xyz
  1  'x, y, z'
loop_
 _atom_site_type_symbol
 _atom_site_label
 _atom_site_symmetry_multiplicity
 _atom_site_fract_x
 _atom_site_fract_y
 _atom_site_fract_z
 _atom_site_occupancy
  B  B0  1  0.93786369  0.70568538  0.38664704  1
  B  B1  1  0.43786369  0.29431462  0.11335296  1
  B  B2  1  0.06213631  0.29431462  0.61335296  1
  B  B3  1  0.56213631  0.70568538  0.88664704  1
  B  B4  1  0.69226340  0.75378180  0.41220042  1
  B  B5  1  0.19226340  0.24621820  0.08779958  1
  B  B6  1  0.30773660  0.24621820  0.58779958  1
  B  B7  1  0.80773660  0.75378180  0.91220042  1
  B  B8  1  0.54100182  0.59602872  0.40579546  1
  B  B9  1  0.04100182  0.40397128  0.09420454  1
  B  B10  1  0.45899818  0.40397128  0.59420454  1
  B  B11  1  0.95899818  0.59602872  0.90579546  1
  B  B12  1  0.79486253  0.59019826  0.43011324  1
  B  B13  1  0.29486253  0.40980174  0.06988676  1
  B  B14  1  0.20513747  0.40980174  0.56988676  1
  B  B15  1  0.70513747  0.59019826  0.93011324  1
  B  B16  1  0.69228583  0.44697622  0.36507931  1
  B  B17  1  0.19228583  0.55302378  0.13492069  1
  B  B18  1  0.30771417  0.55302378  0.63492069  1
  B  B19  1  0.80771417  0.44697622  0.86507931  1
  B  B20  1  0.66345101  0.26686370  0.39769710  1
  B  B21  1  0.16345101  0.73313630  0.10230290  1
  B  B22  1  0.33654899  0.73313630  0.60230290  1
  B  B23  1  0.83654899  0.26686370  0.89769710  1
  B  B24  1  0.88524231  0.16632261  0.41226142  1
  B  B25  1  0.38524231  0.83367739  0.08773858  1
  B  B26  1  0.11475769  0.83367739  0.58773858  1
  B  B27  1  0.61475769  0.16632261  0.91226142  1
  B  B28  1  0.02287293  0.13739373  0.33683073  1
  B  B29  1  0.52287293  0.86260627  0.16316927  1
  B  B30  1  0.97712707  0.86260627  0.66316927  1
  B  B31  1  0.47712707  0.13739373  0.83683073  1
  B  B32  1  0.89102498  0.22589655  0.27523476  1
  B  B33  1  0.39102498  0.77410345  0.22476524  1
  B  B34  1  0.10897502  0.77410345  0.72476524  1
  B  B35  1  0.60897502  0.22589655  0.77523476  1
  B  B36  1  0.82151892  0.41728438  0.28934263  1
  B  B37  1  0.32151892  0.58271562  0.21065737  1
  B  B38  1  0.17848108  0.58271562  0.71065737  1
  B  B39  1  0.67848108  0.41728438  0.78934263  1
  B  B40  1  0.95170924  0.51499028  0.35738191  1
  B  B41  1  0.45170924  0.48500972  0.14261809  1
  B  B42  1  0.04829076  0.48500972  0.64261809  1
  B  B43  1  0.54829076  0.51499028  0.85738191  1
  B  B44  1  0.76155070  0.12515310  0.33586357  1
  B  B45  1  0.26155070  0.87484690  0.16413643  1
  B  B46  1  0.23844930  0.87484690  0.66413643  1
  B  B47  1  0.73844930  0.12515310  0.83586357  1
  B  B48  1  0.65306384  0.28801684  0.31024249  1
  B  B49  1  0.15306384  0.71198316  0.18975751  1
  B  B50  1  0.34693616  0.71198316  0.68975751  1
  B  B51  1  0.84693616  0.28801684  0.81024249  1
  H  H52  1  0.52398451  0.71470790  0.37461539  1
  H  H53  1  0.02398451  0.28529210  0.12538461  1
  H  H54  1  0.47601549  0.28529210  0.62538461  1
  H  H55  1  0.97601549  0.71470790  0.87461539  1
  H  H56  1  0.06935065  0.21625421  0.39673455  1
  H  H57  1  0.56935065  0.78374579  0.10326545  1
  H  H58  1  0.93064935  0.78374579  0.60326545  1
  H  H59  1  0.43064935  0.21625421  0.89673455  1
  H  H60  1  0.06841447  0.25248216  0.30447895  1
  H  H61  1  0.56841447  0.74751784  0.19552105  1
  H  H62  1  0.93158553  0.74751784  0.69552105  1
  H  H63  1  0.43158553  0.25248216  0.80447895  1
  H  H64  1  0.79974805  0.78869265  0.35906204  1
  H  H65  1  0.29974805  0.21130735  0.14093796  1
  H  H66  1  0.20025195  0.21130735  0.64093796  1
  H  H67  1  0.70025195  0.78869265  0.85906204  1
  H  H68  1  0.98411007  0.63056454  0.32601501  1
  H  H69  1  0.48411007  0.36943546  0.17398499  1
  H  H70  1  0.01588993  0.36943546  0.67398499  1
  H  H71  1  0.51588993  0.63056454  0.82601501  1
  H  H72  1  0.82167996  0.30368076  0.43658567  1
  H  H73  1  0.32167996  0.69631924  0.06341433  1
  H  H74  1  0.17832004  0.69631924  0.56341433  1
  H  H75  1  0.67832004  0.30368076  0.93658567  1
  H  H76  1  0.51252667  0.51427037  0.34920533  1
  H  H77  1  0.01252667  0.48572963  0.15079467  1
  H  H78  1  0.48747333  0.48572963  0.65079467  1
  H  H79  1  0.98747333  0.51427037  0.84920533  1
  H  H80  1  0.07498808  0.78242071  0.40726263  1
  H  H81  1  0.57498808  0.21757929  0.09273737  1
  H  H82  1  0.92501192  0.21757929  0.59273737  1
  H  H83  1  0.14523052  0.04252531  0.32589466  1
  H  H84  1  0.42501192  0.78242071  0.90726263  1
  H  H85  1  0.15474516  0.13763674  0.05064012  1
  H  H86  1  0.34525484  0.13763674  0.55064012  1
  H  H87  1  0.84525484  0.86236326  0.94935988  1
  H  H88  1  0.40342904  0.58945115  0.44351758  1
  H  H89  1  0.90342904  0.41054885  0.05648242  1
  H  H90  1  0.59657096  0.41054885  0.55648242  1
  H  H91  1  0.09657096  0.58945115  0.94351758  1
  H  H92  1  0.83626110  0.56887309  0.48622778  1
  H  H93  1  0.33626110  0.43112691  0.01377222  1
  H  H94  1  0.16373890  0.43112691  0.51377222  1
  H  H95  1  0.66373890  0.56887309  0.98622778  1
  H  H96  1  0.52243924  0.24910733  0.43301980  1
  H  H97  1  0.02243924  0.75089267  0.06698020  1
  H  H98  1  0.47756076  0.75089267  0.56698020  1
  H  H99  1  0.97756076  0.24910733  0.93301980  1
  H  H100  1  0.90749160  0.09684469  0.45803239  1
  H  H101  1  0.40749160  0.90315531  0.04196761  1
  H  H102  1  0.09250840  0.90315531  0.54196761  1
  H  H103  1  0.59250840  0.09684469  0.95803239  1
  H  H104  1  0.00626479  0.26701500  0.78183440  1
  H  H105  1  0.50626479  0.73298500  0.71816560  1
  H  H106  1  0.99373521  0.73298500  0.21816560  1
  H  H107  1  0.49373521  0.26701500  0.28183440  1
  H  H108  1  0.82317750  0.01132897  0.82064020  1
  H  H109  1  0.32317750  0.98867103  0.67935980  1
  H  H110  1  0.17682250  0.98867103  0.17935980  1
  H  H111  1  0.67682250  0.01132897  0.32064020  1
  H  H112  1  0.39421644  0.46651435  0.87716622  1
  H  H113  1  0.89421644  0.53348565  0.62283378  1
  H  H114  1  0.60578356  0.53348565  0.12283378  1
  H  H115  1  0.10578356  0.46651435  0.37716622  1
  H  H116  1  0.71817136  0.48075086  0.74218030  1
  H  H117  1  0.21817136  0.51924914  0.75781970  1
  H  H118  1  0.28182864  0.51924914  0.25781970  1
  H  H119  1  0.78182864  0.48075086  0.24218030  1
  H  H120  1  0.58417504  0.16767517  0.71853207  1
  H  H121  1  0.08417504  0.83232483  0.78146793  1
  H  H122  1  0.41582496  0.83232483  0.28146793  1
  H  H123  1  0.91582496  0.16767517  0.21853207  1
  H  H124  1  0.35476948  0.04252531  0.82589466  1
  H  H125  1  0.85476948  0.95747469  0.67410534  1
  H  H126  1  0.64523052  0.95747469  0.17410534  1
  H  H127  1  0.65474516  0.86236326  0.44935988  1
