# generated using pymatgen
data_NaMg2Te
_symmetry_space_group_name_H-M   'P 1'
_cell_length_a   9.33612764
_cell_length_b   9.33612764
_cell_length_c   7.23228042
_cell_angle_alpha   49.80069677
_cell_angle_beta   49.80069677
_cell_angle_gamma   90.00000000
_symmetry_Int_Tables_number   1
_chemical_formula_structural   NaMg2Te
_chemical_formula_sum   'Na2 Mg4 Te2'
_cell_volume   257.45265448
_cell_formula_units_Z   2
loop_
 _symmetry_equiv_pos_site_id
 _symmetry_equiv_pos_as_xyz
  1  'x, y, z'
loop_
 _atom_site_type_symbol
 _atom_site_label
 _atom_site_symmetry_multiplicity
 _atom_site_fract_x
 _atom_site_fract_y
 _atom_site_fract_z
 _atom_site_occupancy
  Na  Na0  1  0.50000000  0.50000000  0.00000000  1
  Na  Na1  1  0.25000000  0.75000000  0.50000000  1
  Mg  Mg2  1  0.69005485  0.12500000  0.25000000  1
  Mg  Mg3  1  0.05994515  0.62500000  0.25000000  1
  Mg  Mg4  1  0.37500000  0.30994515  0.75000000  1
  Mg  Mg5  1  0.87500000  0.94005485  0.75000000  1
  Te  Te6  1  0.00000000  0.00000000  0.00000000  1
  Te  Te7  1  0.75000000  0.25000000  0.50000000  1
