# generated using pymatgen
data_Li2ScFe(SiO3)4
_symmetry_space_group_name_H-M   'P 1'
_cell_length_a   6.66404214
_cell_length_b   6.66404214
_cell_length_c   5.38946131
_cell_angle_alpha   74.82507374
_cell_angle_beta   74.82507378
_cell_angle_gamma   84.09214133
_symmetry_Int_Tables_number   1
_chemical_formula_structural   Li2ScFe(SiO3)4
_chemical_formula_sum   'Li2 Sc1 Fe1 Si4 O12'
_cell_volume   222.79067112
_cell_formula_units_Z   1
loop_
 _symmetry_equiv_pos_site_id
 _symmetry_equiv_pos_as_xyz
  1  'x, y, z'
loop_
 _atom_site_type_symbol
 _atom_site_label
 _atom_site_symmetry_multiplicity
 _atom_site_fract_x
 _atom_site_fract_y
 _atom_site_fract_z
 _atom_site_occupancy
  Li  Li0  1  0.25488436  0.74511564  0.50000000  1
  Li  Li1  1  0.75027310  0.24972690  -0.00000000  1
  Sc  Sc2  1  0.89709471  0.10290529  0.50000000  1
  Fe  Fe3  1  0.10725180  0.89274820  -0.00000000  1
  Si  Si4  1  0.79058673  0.61625634  0.52080417  1
  Si  Si5  1  0.61360201  0.79152212  0.02453740  1
  Si  Si6  1  0.38374366  0.20941327  0.47919583  1
  Si  Si7  1  0.20847788  0.38639799  0.97546260  1
  O  O8  1  0.96946752  0.79470699  0.39562636  1
  O  O9  1  0.79760443  0.96431946  0.91135611  1
  O  O10  1  0.88106252  0.37958999  0.58712892  1
  O  O11  1  0.64284853  0.64528504  0.31121919  1
  O  O12  1  0.37502917  0.88250484  0.08627326  1
  O  O13  1  0.64616768  0.65168980  0.80592491  1
  O  O14  1  0.35471496  0.35715147  0.68878081  1
  O  O15  1  0.62041001  0.11893748  0.41287108  1
  O  O16  1  0.34831020  0.35383232  0.19407509  1
  O  O17  1  0.11749516  0.62497083  0.91372674  1
  O  O18  1  0.20529301  0.03053248  0.60437364  1
  O  O19  1  0.03568054  0.20239657  0.08864389  1
