# generated using pymatgen
data_NiSnRu
_symmetry_space_group_name_H-M   'P 1'
_cell_length_a   3.21703775
_cell_length_b   3.21703775
_cell_length_c   4.92930139
_cell_angle_alpha   109.04543369
_cell_angle_beta   109.04543369
_cell_angle_gamma   90.00000000
_symmetry_Int_Tables_number   1
_chemical_formula_structural   NiSnRu
_chemical_formula_sum   'Ni1 Sn1 Ru1'
_cell_volume   45.25788541
_cell_formula_units_Z   1
loop_
 _symmetry_equiv_pos_site_id
 _symmetry_equiv_pos_as_xyz
  1  'x, y, z'
loop_
 _atom_site_type_symbol
 _atom_site_label
 _atom_site_symmetry_multiplicity
 _atom_site_fract_x
 _atom_site_fract_y
 _atom_site_fract_z
 _atom_site_occupancy
  Ru  Ru0  1  0.61846055  0.61846055  0.23692109  1
  Sn  Sn1  1  0.94513376  0.94513376  0.89026751  1
  Ni  Ni2  1  0.28640470  0.28640470  0.57280939  1
