# generated using pymatgen
data_ErNpScO6
_symmetry_space_group_name_H-M   'P 1'
_cell_length_a   5.50950393
_cell_length_b   5.50950394
_cell_length_c   9.48826196
_cell_angle_alpha   90.00000000
_cell_angle_beta   90.00000000
_cell_angle_gamma   120.00000002
_symmetry_Int_Tables_number   1
_chemical_formula_structural   ErNpScO6
_chemical_formula_sum   'Er2 Np2 Sc2 O12'
_cell_volume   249.42632792
_cell_formula_units_Z   2
loop_
 _symmetry_equiv_pos_site_id
 _symmetry_equiv_pos_as_xyz
  1  'x, y, z'
loop_
 _atom_site_type_symbol
 _atom_site_label
 _atom_site_symmetry_multiplicity
 _atom_site_fract_x
 _atom_site_fract_y
 _atom_site_fract_z
 _atom_site_occupancy
  Er  Er0  1  0.00000000  0.00000000  0.00000000  1
  Er  Er1  1  0.00000000  0.00000000  0.50000000  1
  Np  Np2  1  0.66666667  0.33333333  0.25000000  1
  Np  Np3  1  0.33333333  0.66666667  0.75000000  1
  Sc  Sc4  1  0.33333333  0.66666667  0.25000000  1
  Sc  Sc5  1  0.66666667  0.33333333  0.75000000  1
  O  O6  1  0.65657687  0.64935851  0.13546602  1
  O  O7  1  0.99278163  0.34342213  0.13546602  1
  O  O8  1  0.34342313  0.99278263  0.63546602  1
  O  O9  1  0.00721837  0.65657787  0.86453398  1
  O  O10  1  0.35064049  0.34342213  0.36453398  1
  O  O11  1  0.99278163  0.64935851  0.36453398  1
  O  O12  1  0.64935951  0.99278263  0.86453398  1
  O  O13  1  0.65657687  0.00721737  0.36453398  1
  O  O14  1  0.00721837  0.35064149  0.63546602  1
  O  O15  1  0.35064049  0.00721737  0.13546602  1
  O  O16  1  0.64935951  0.65657787  0.63546602  1
  O  O17  1  0.34342313  0.35064149  0.86453398  1
