# generated using pymatgen
data_LuPRu
_symmetry_space_group_name_H-M   'P 1'
_cell_length_a   3.92603389
_cell_length_b   3.99441302
_cell_length_c   3.99441302
_cell_angle_alpha   119.99999999
_cell_angle_beta   90.00000000
_cell_angle_gamma   90.00000000
_symmetry_Int_Tables_number   1
_chemical_formula_structural   LuPRu
_chemical_formula_sum   'Lu1 P1 Ru1'
_cell_volume   54.24885964
_cell_formula_units_Z   1
loop_
 _symmetry_equiv_pos_site_id
 _symmetry_equiv_pos_as_xyz
  1  'x, y, z'
loop_
 _atom_site_type_symbol
 _atom_site_label
 _atom_site_symmetry_multiplicity
 _atom_site_fract_x
 _atom_site_fract_y
 _atom_site_fract_z
 _atom_site_occupancy
  Ru  Ru0  1  0.16665395  0.33333333  0.66666667  1
  Lu  Lu1  1  0.66669653  0.66666667  0.33333333  1
  P  P2  1  0.16664952  0.00000000  0.00000000  1
