# generated using pymatgen
data_TbAg2SnSe4
_symmetry_space_group_name_H-M   'P 1'
_cell_length_a   4.13464408
_cell_length_b   6.91349281
_cell_length_c   7.19890869
_cell_angle_alpha   69.87873089
_cell_angle_beta   89.99971573
_cell_angle_gamma   89.99968625
_symmetry_Int_Tables_number   1
_chemical_formula_structural   TbAg2SnSe4
_chemical_formula_sum   'Tb1 Ag2 Sn1 Se4'
_cell_volume   193.22017104
_cell_formula_units_Z   1
loop_
 _symmetry_equiv_pos_site_id
 _symmetry_equiv_pos_as_xyz
  1  'x, y, z'
loop_
 _atom_site_type_symbol
 _atom_site_label
 _atom_site_symmetry_multiplicity
 _atom_site_fract_x
 _atom_site_fract_y
 _atom_site_fract_z
 _atom_site_occupancy
  Tb  Tb0  1  0.00000050  0.49999400  0.50000450  1
  Ag  Ag1  1  -0.00000000  0.00000100  0.99999900  1
  Ag  Ag2  1  0.50000000  0.00000100  0.49999900  1
  Sn  Sn3  1  0.49999900  0.50000150  0.99999950  1
  Se  Se4  1  0.00000300  0.75578216  0.74818970  1
  Se  Se5  1  0.99999600  0.24421934  0.25180880  1
  Se  Se6  1  0.50000200  0.74874352  0.24919524  1
  Se  Se7  1  0.49999700  0.25125748  0.75080376  1
