# generated using pymatgen
data_Tb2Pr7Nd
_symmetry_space_group_name_H-M   'P 1'
_cell_length_a   5.76319261
_cell_length_b   9.36847317
_cell_length_c   9.36850160
_cell_angle_alpha   122.59070104
_cell_angle_beta   90.00000000
_cell_angle_gamma   90.00000000
_symmetry_Int_Tables_number   1
_chemical_formula_structural   Tb2Pr7Nd
_chemical_formula_sum   'Tb2 Pr7 Nd1'
_cell_volume   426.17947127
_cell_formula_units_Z   1
loop_
 _symmetry_equiv_pos_site_id
 _symmetry_equiv_pos_as_xyz
  1  'x, y, z'
loop_
 _atom_site_type_symbol
 _atom_site_label
 _atom_site_symmetry_multiplicity
 _atom_site_fract_x
 _atom_site_fract_y
 _atom_site_fract_z
 _atom_site_occupancy
  Tb  Tb0  1  0.50000000  0.70402039  0.29597948  1
  Tb  Tb1  1  0.50000000  0.29597961  0.70402052  1
  Pr  Pr2  1  0.00000000  0.77232940  0.22766363  1
  Pr  Pr3  1  0.00000000  0.22767060  0.77233637  1
  Pr  Pr4  1  0.50000000  0.06470089  0.29524267  1
  Pr  Pr5  1  0.50000000  0.93529911  0.70475733  1
  Pr  Pr6  1  0.50000000  0.29524239  0.06470261  1
  Pr  Pr7  1  0.50000000  0.70475761  0.93529739  1
  Pr  Pr8  1  0.50000000  0.50000000  0.50000000  1
  Nd  Nd9  1  0.00000000  0.00000000  0.00000000  1
