# generated using pymatgen
data_Rb2ICl5
_symmetry_space_group_name_H-M   'P 1'
_cell_length_a   10.45779250
_cell_length_b   10.79773543
_cell_length_c   12.24977640
_cell_angle_alpha   90.00000000
_cell_angle_beta   109.16676493
_cell_angle_gamma   90.00000000
_symmetry_Int_Tables_number   1
_chemical_formula_structural   Rb2ICl5
_chemical_formula_sum   'Rb8 I4 Cl20'
_cell_volume   1306.57282390
_cell_formula_units_Z   4
loop_
 _symmetry_equiv_pos_site_id
 _symmetry_equiv_pos_as_xyz
  1  'x, y, z'
loop_
 _atom_site_type_symbol
 _atom_site_label
 _atom_site_symmetry_multiplicity
 _atom_site_fract_x
 _atom_site_fract_y
 _atom_site_fract_z
 _atom_site_occupancy
  Rb  Rb0  1  0.68676176  0.86079107  0.98569460  1
  Rb  Rb1  1  0.18676176  0.63920893  0.98569460  1
  Rb  Rb2  1  0.52276108  0.86231967  0.35224785  1
  Rb  Rb3  1  0.02276108  0.63768033  0.35224785  1
  Rb  Rb4  1  0.97723892  0.36231967  0.64775215  1
  Rb  Rb5  1  0.47723892  0.13768033  0.64775215  1
  Rb  Rb6  1  0.81323824  0.36079107  0.01430540  1
  Rb  Rb7  1  0.31323824  0.13920893  0.01430540  1
  I  I8  1  0.57301941  0.38054509  0.34813136  1
  I  I9  1  0.07301941  0.11945491  0.34813136  1
  I  I10  1  0.92698059  0.88054509  0.65186864  1
  I  I11  1  0.42698059  0.61945491  0.65186864  1
  Cl  Cl12  1  0.00616044  0.09740122  0.13407690  1
  Cl  Cl13  1  0.92320220  0.64425198  0.08194669  1
  Cl  Cl14  1  0.50616044  0.40259878  0.13407690  1
  Cl  Cl15  1  0.42320220  0.85574802  0.08194669  1
  Cl  Cl16  1  0.85691216  0.86829056  0.43011880  1
  Cl  Cl17  1  0.94090904  0.32335390  0.32961609  1
  Cl  Cl18  1  0.35691216  0.63170944  0.43011880  1
  Cl  Cl19  1  0.70520847  0.57856008  0.37468249  1
  Cl  Cl20  1  0.44090904  0.17664610  0.32961609  1
  Cl  Cl21  1  0.20520747  0.92143992  0.37468249  1
  Cl  Cl22  1  0.79479153  0.07856008  0.62531751  1
  Cl  Cl23  1  0.55909096  0.82335390  0.67038391  1
  Cl  Cl24  1  0.29479253  0.42143992  0.62531751  1
  Cl  Cl25  1  0.64308784  0.36829056  0.56988120  1
  Cl  Cl26  1  0.05909096  0.67664610  0.67038391  1
  Cl  Cl27  1  0.14308784  0.13170944  0.56988120  1
  Cl  Cl28  1  0.57679780  0.14425198  0.91805331  1
  Cl  Cl29  1  0.49383956  0.59740122  0.86592310  1
  Cl  Cl30  1  0.07679780  0.35574802  0.91805331  1
  Cl  Cl31  1  0.99383956  0.90259878  0.86592310  1
