# generated using pymatgen
data_CaY(PO4)2
_symmetry_space_group_name_H-M   'P 1'
_cell_length_a   4.61446210
_cell_length_b   4.61449147
_cell_length_c   7.96183371
_cell_angle_alpha   90.38610709
_cell_angle_beta   90.38523977
_cell_angle_gamma   67.63976685
_symmetry_Int_Tables_number   1
_chemical_formula_structural   CaY(PO4)2
_chemical_formula_sum   'Ca1 Y1 P2 O8'
_cell_volume   156.78208485
_cell_formula_units_Z   1
loop_
 _symmetry_equiv_pos_site_id
 _symmetry_equiv_pos_as_xyz
  1  'x, y, z'
loop_
 _atom_site_type_symbol
 _atom_site_label
 _atom_site_symmetry_multiplicity
 _atom_site_fract_x
 _atom_site_fract_y
 _atom_site_fract_z
 _atom_site_occupancy
  Y  Y0  1  0.93893265  0.06106587  0.99999682  1
  P  P1  1  0.38538536  0.37688066  0.75566564  1
  P  P2  1  0.62310762  0.61462261  0.24433579  1
  Ca  Ca3  1  0.94272813  0.05728924  0.49999271  1
  O  O4  1  0.64902730  0.26770372  0.24198800  1
  O  O5  1  0.36647011  0.18695376  0.91438050  1
  O  O6  1  0.34356687  0.22619246  0.58875592  1
  O  O7  1  0.77379605  0.65644781  0.41124586  1
  O  O8  1  0.81304253  0.63353289  0.08561995  1
  O  O9  1  0.28007040  0.84819100  0.23139109  1
  O  O10  1  0.73230153  0.35095688  0.75801262  1
  O  O11  1  0.15182446  0.71991010  0.76861308  1
