# generated using pymatgen
data_H6RuCI3N
_symmetry_space_group_name_H-M   'P 1'
_cell_length_a   8.29890073
_cell_length_b   8.25789701
_cell_length_c   11.66463948
_cell_angle_alpha   89.87942815
_cell_angle_beta   90.11188516
_cell_angle_gamma   89.45332120
_symmetry_Int_Tables_number   1
_chemical_formula_structural   H6RuCI3N
_chemical_formula_sum   'H24 Ru4 C4 I12 N4'
_cell_volume   799.35514907
_cell_formula_units_Z   4
loop_
 _symmetry_equiv_pos_site_id
 _symmetry_equiv_pos_as_xyz
  1  'x, y, z'
loop_
 _atom_site_type_symbol
 _atom_site_label
 _atom_site_symmetry_multiplicity
 _atom_site_fract_x
 _atom_site_fract_y
 _atom_site_fract_z
 _atom_site_occupancy
  H  H0  1  0.91488723  0.41526896  0.30393049  1
  H  H1  1  0.96380752  0.62609283  0.30376439  1
  H  H2  1  0.03617895  0.39390338  0.11478750  1
  H  H3  1  0.08671106  0.58751029  0.11478145  1
  H  H4  1  0.89353113  0.53852409  0.11224638  1
  H  H5  1  0.41272733  0.91897075  0.30827368  1
  H  H6  1  0.47155225  0.12718516  0.30230836  1
  H  H7  1  0.52726802  0.88501708  0.11657777  1
  H  H8  1  0.58320573  0.07740068  0.11287781  1
  H  H9  1  0.38890812  0.03336740  0.11478710  1
  H  H10  1  0.49013495  0.87741926  0.80700580  1
  H  H11  1  0.39391376  0.07235077  0.80361291  1
  H  H12  1  0.59417557  0.92893111  0.61569790  1
  H  H13  1  0.50735694  0.11170784  0.61310923  1
  H  H14  1  0.39519107  0.94481186  0.61491000  1
  H  H15  1  0.91271358  0.42065006  0.80776353  1
  H  H16  1  0.97642430  0.62737104  0.80352368  1
  H  H17  1  0.02191280  0.38728088  0.61548972  1
  H  H18  1  0.08430835  0.57804694  0.61228659  1
  H  H19  1  0.88883099  0.54087175  0.61547323  1
  H  H20  1  0.60932968  0.05706198  0.80461371  1
  H  H21  1  0.62192063  0.97026603  0.30493166  1
  H  H22  1  0.12142381  0.47657143  0.30604547  1
  H  H23  1  0.12315014  0.46714219  0.80313208  1
  Ru  Ru24  1  0.00034783  0.01305609  0.98636722  1
  Ru  Ru25  1  0.49978508  0.47483542  0.48534120  1
  Ru  Ru26  1  0.99716862  0.00840291  0.48655726  1
  Ru  Ru27  1  0.49824182  0.49712085  0.98623938  1
  C  C28  1  0.00297181  0.50428699  0.77476545  1
  C  C29  1  0.50143400  0.00410515  0.27512568  1
  C  C30  1  0.49798284  0.00133525  0.77494512  1
  C  C31  1  0.00080172  0.50585504  0.27448122  1
  I  I32  1  0.99668869  0.00949013  0.74261865  1
  I  I33  1  0.49896002  0.50228576  0.24265966  1
  I  I34  1  0.00201642  0.00188559  0.22889227  1
  I  I35  1  0.50169425  0.48446069  0.72977324  1
  I  I36  1  0.74149621  0.25685826  0.98888250  1
  I  I37  1  0.23716331  0.76095726  0.48738438  1
  I  I38  1  0.25696450  0.25851431  0.98643254  1
  I  I39  1  0.75922392  0.76337957  0.48632874  1
  I  I40  1  0.25686551  0.74150512  0.98035981  1
  I  I41  1  0.75457377  0.24391682  0.48138913  1
  I  I42  1  0.73563992  0.73666150  0.98246043  1
  I  I43  1  0.23907372  0.24343255  0.48227604  1
  N  N44  1  0.99857041  0.50144698  0.64808647  1
  N  N45  1  0.49933159  -0.00128951  0.14847627  1
  N  N46  1  0.49855669  0.99738238  0.64827304  1
  N  N47  1  0.00366046  0.50572213  0.14779087  1
