# generated using pymatgen
data_RbNaCuAs
_symmetry_space_group_name_H-M   'P 1'
_cell_length_a   5.51041484
_cell_length_b   6.38508199
_cell_length_c   6.38508199
_cell_angle_alpha   101.57120425
_cell_angle_beta   90.00000000
_cell_angle_gamma   90.00000000
_symmetry_Int_Tables_number   1
_chemical_formula_structural   RbNaCuAs
_chemical_formula_sum   'Rb2 Na2 Cu2 As2'
_cell_volume   220.08974252
_cell_formula_units_Z   2
loop_
 _symmetry_equiv_pos_site_id
 _symmetry_equiv_pos_as_xyz
  1  'x, y, z'
loop_
 _atom_site_type_symbol
 _atom_site_label
 _atom_site_symmetry_multiplicity
 _atom_site_fract_x
 _atom_site_fract_y
 _atom_site_fract_z
 _atom_site_occupancy
  As  As0  1  0.00000000  0.29371268  0.29371268  1
  As  As1  1  0.50000047  0.76679506  0.76679506  1
  Cu  Cu2  1  0.25718935  0.52238378  0.52238378  1
  Cu  Cu3  1  0.74280977  0.52238378  0.52238378  1
  Na  Na4  1  0.00000000  0.97675475  0.64626012  1
  Na  Na5  1  0.00000000  0.64626012  0.97675475  1
  Rb  Rb6  1  0.50000047  0.96351968  0.30819237  1
  Rb  Rb7  1  0.50000047  0.30819237  0.96351968  1
