# generated using pymatgen
data_La3Nd3Y4
_symmetry_space_group_name_H-M   'P 1'
_cell_length_a   3.67386161
_cell_length_b   9.84520592
_cell_length_c   9.84520414
_cell_angle_alpha   90.02834065
_cell_angle_beta   90.00000000
_cell_angle_gamma   90.00000000
_symmetry_Int_Tables_number   1
_chemical_formula_structural   La3Nd3Y4
_chemical_formula_sum   'La3 Nd3 Y4'
_cell_volume   356.10024268
_cell_formula_units_Z   1
loop_
 _symmetry_equiv_pos_site_id
 _symmetry_equiv_pos_as_xyz
  1  'x, y, z'
loop_
 _atom_site_type_symbol
 _atom_site_label
 _atom_site_symmetry_multiplicity
 _atom_site_fract_x
 _atom_site_fract_y
 _atom_site_fract_z
 _atom_site_occupancy
  La  La0  1  0.00000000  0.50195994  0.00067495  1
  La  La1  1  0.00000000  0.99932505  0.49804006  1
  La  La2  1  0.50000000  0.17545982  0.82454018  1
  Nd  Nd3  1  0.50000000  0.82472972  0.17527028  1
  Nd  Nd4  1  0.50000000  0.32564409  0.32489102  1
  Nd  Nd5  1  0.50000000  0.67510898  0.67435591  1
  Y  Y6  1  0.00000000  0.62198865  0.37801135  1
  Y  Y7  1  0.00000000  0.37947774  0.62052226  1
  Y  Y8  1  0.00000000  0.87609908  0.87979307  1
  Y  Y9  1  0.00000000  0.12020693  0.12390092  1
