# generated using pymatgen
data_In(AsSe2)2
_symmetry_space_group_name_H-M   'P 1'
_cell_length_a   3.86753655
_cell_length_b   6.70331202
_cell_length_c   13.50097275
_cell_angle_alpha   90.00000000
_cell_angle_beta   90.00000000
_cell_angle_gamma   106.76694931
_symmetry_Int_Tables_number   1
_chemical_formula_structural   In(AsSe2)2
_chemical_formula_sum   'In2 As4 Se8'
_cell_volume   335.13623309
_cell_formula_units_Z   2
loop_
 _symmetry_equiv_pos_site_id
 _symmetry_equiv_pos_as_xyz
  1  'x, y, z'
loop_
 _atom_site_type_symbol
 _atom_site_label
 _atom_site_symmetry_multiplicity
 _atom_site_fract_x
 _atom_site_fract_y
 _atom_site_fract_z
 _atom_site_occupancy
  In  In0  1  0.59367248  0.18734497  0.75000000  1
  In  In1  1  0.40632752  0.81265503  0.25000000  1
  As  As2  1  0.13815591  0.27631183  0.44163914  1
  As  As3  1  0.86184409  0.72368817  0.94163914  1
  As  As4  1  0.13815591  0.27631183  0.05836086  1
  As  As5  1  0.86184409  0.72368817  0.55836086  1
  Se  Se6  1  0.77196403  0.54392806  0.11843128  1
  Se  Se7  1  0.77196403  0.54392806  0.38156872  1
  Se  Se8  1  0.22803597  0.45607194  0.88156872  1
  Se  Se9  1  0.22803597  0.45607194  0.61843128  1
  Se  Se10  1  0.94429148  0.88858297  0.75000000  1
  Se  Se11  1  0.05570852  0.11141703  0.25000000  1
  Se  Se12  1  0.50000000  0.00000000  0.00000000  1
  Se  Se13  1  0.50000000  0.00000000  0.50000000  1
