# generated using pymatgen
data_KPrSmNi2
_symmetry_space_group_name_H-M   'P 1'
_cell_length_a   3.83013668
_cell_length_b   9.35512749
_cell_length_c   9.35512749
_cell_angle_alpha   24.88312278
_cell_angle_beta   90.00000000
_cell_angle_gamma   90.00000000
_symmetry_Int_Tables_number   1
_chemical_formula_structural   KPrSmNi2
_chemical_formula_sum   'K1 Pr1 Sm1 Ni2'
_cell_volume   141.04478405
_cell_formula_units_Z   1
loop_
 _symmetry_equiv_pos_site_id
 _symmetry_equiv_pos_as_xyz
  1  'x, y, z'
loop_
 _atom_site_type_symbol
 _atom_site_label
 _atom_site_symmetry_multiplicity
 _atom_site_fract_x
 _atom_site_fract_y
 _atom_site_fract_z
 _atom_site_occupancy
  K  K0  1  0.00000000  0.99708672  0.99708672  1
  Ni  Ni1  1  0.00000000  0.21353391  0.21353391  1
  Ni  Ni2  1  0.00000000  0.79167119  0.79167119  1
  Pr  Pr3  1  0.50000043  0.66530446  0.66530446  1
  Sm  Sm4  1  0.50000043  0.33240402  0.33240402  1
