# generated using pymatgen
data_Zn2Cu5Au2
_symmetry_space_group_name_H-M   'P 1'
_cell_length_a   9.63558830
_cell_length_b   4.71350566
_cell_length_c   7.82415419
_cell_angle_alpha   107.52830517
_cell_angle_beta   128.00750442
_cell_angle_gamma   89.99999707
_symmetry_Int_Tables_number   1
_chemical_formula_structural   Zn2Cu5Au2
_chemical_formula_sum   'Zn4 Cu10 Au4'
_cell_volume   258.73153280
_cell_formula_units_Z   2
loop_
 _symmetry_equiv_pos_site_id
 _symmetry_equiv_pos_as_xyz
  1  'x, y, z'
loop_
 _atom_site_type_symbol
 _atom_site_label
 _atom_site_symmetry_multiplicity
 _atom_site_fract_x
 _atom_site_fract_y
 _atom_site_fract_z
 _atom_site_occupancy
  Zn  Zn0  1  0.83631789  0.38341094  0.75057758  1
  Zn  Zn1  1  0.16368212  0.63281937  0.24942043  1
  Zn  Zn2  1  0.41426269  0.88341094  0.75058058  1
  Zn  Zn3  1  0.58573531  0.13281537  0.24941743  1
  Cu  Cu4  1  0.76976793  0.87451171  0.10808272  1
  Cu  Cu5  1  0.23021407  0.76641099  0.89191728  1
  Cu  Cu6  1  0.83831580  0.37451171  0.10808373  1
  Cu  Cu7  1  0.16170120  0.26640999  0.89191627  1
  Cu  Cu8  1  0.64935386  0.89550936  0.71256429  1
  Cu  Cu9  1  0.35064714  0.18290007  0.28743770  1
  Cu  Cu10  1  0.56321244  0.39551136  0.71256829  1
  Cu  Cu11  1  0.43678856  0.68289807  0.28743370  1
  Cu  Cu12  1  0.06508741  0.82430670  0.50000000  1
  Cu  Cu13  1  0.93491159  0.32430570  0.49999800  1
  Au  Au14  1  0.00000100  0.96830041  0.00000000  1
  Au  Au15  1  0.49999900  0.46829841  0.00000000  1
  Au  Au16  1  0.79621556  0.80783344  0.50000100  1
  Au  Au17  1  0.20378544  0.30783244  0.50000000  1
