# generated using pymatgen
data_Er2HfRh
_symmetry_space_group_name_H-M   'P 1'
_cell_length_a   3.42184647
_cell_length_b   3.42184647
_cell_length_c   7.81572244
_cell_angle_alpha   90.00000000
_cell_angle_beta   90.00000000
_cell_angle_gamma   90.00000000
_symmetry_Int_Tables_number   1
_chemical_formula_structural   Er2HfRh
_chemical_formula_sum   'Er2 Hf1 Rh1'
_cell_volume   91.51455403
_cell_formula_units_Z   1
loop_
 _symmetry_equiv_pos_site_id
 _symmetry_equiv_pos_as_xyz
  1  'x, y, z'
loop_
 _atom_site_type_symbol
 _atom_site_label
 _atom_site_symmetry_multiplicity
 _atom_site_fract_x
 _atom_site_fract_y
 _atom_site_fract_z
 _atom_site_occupancy
  Rh  Rh0  1  0.50000000  0.50000000  0.00000000  1
  Hf  Hf1  1  0.50000000  0.50000000  0.50000000  1
  Er  Er2  1  0.00000000  0.00000000  0.78904279  1
  Er  Er3  1  0.00000000  0.00000000  0.21095721  1
