# generated using pymatgen
data_Rb3VTe4
_symmetry_space_group_name_H-M   'P 1'
_cell_length_a   8.00064968
_cell_length_b   8.00064968
_cell_length_c   8.00064968
_cell_angle_alpha   90.58268977
_cell_angle_beta   116.50960938
_cell_angle_gamma   122.92101832
_symmetry_Int_Tables_number   1
_chemical_formula_structural   Rb3VTe4
_chemical_formula_sum   'Rb3 V1 Te4'
_cell_volume   362.25831881
_cell_formula_units_Z   1
loop_
 _symmetry_equiv_pos_site_id
 _symmetry_equiv_pos_as_xyz
  1  'x, y, z'
loop_
 _atom_site_type_symbol
 _atom_site_label
 _atom_site_symmetry_multiplicity
 _atom_site_fract_x
 _atom_site_fract_y
 _atom_site_fract_z
 _atom_site_occupancy
  Rb  Rb0  1  0.59012465  0.25094452  0.84107017  1
  Rb  Rb1  1  0.97004031  0.00000000  0.97004031  1
  Rb  Rb2  1  0.59012465  0.74905448  0.33917914  1
  V  V3  1  0.00445776  0.50000000  0.50445776  1
  Te  Te4  1  0.16921791  0.68926220  0.85848011  1
  Te  Te5  1  0.16921791  0.31073880  0.47995570  1
  Te  Te6  1  0.56863185  0.23972394  0.32890791  1
  Te  Te7  1  0.08918297  0.76027506  0.32890691  1
