# generated using pymatgen
data_TaRe2N
_symmetry_space_group_name_H-M   'P 1'
_cell_length_a   6.94127400
_cell_length_b   6.94127400
_cell_length_c   5.42727459
_cell_angle_alpha   50.24689739
_cell_angle_beta   50.24689739
_cell_angle_gamma   90.00000000
_symmetry_Int_Tables_number   1
_chemical_formula_structural   TaRe2N
_chemical_formula_sum   'Ta2 Re4 N2'
_cell_volume   111.59629249
_cell_formula_units_Z   2
loop_
 _symmetry_equiv_pos_site_id
 _symmetry_equiv_pos_as_xyz
  1  'x, y, z'
loop_
 _atom_site_type_symbol
 _atom_site_label
 _atom_site_symmetry_multiplicity
 _atom_site_fract_x
 _atom_site_fract_y
 _atom_site_fract_z
 _atom_site_occupancy
  Re  Re0  1  0.51623974  0.12500000  0.25000000  1
  Re  Re1  1  0.23376026  0.62500000  0.25000000  1
  Re  Re2  1  0.37500000  0.48376026  0.75000000  1
  Re  Re3  1  0.87500000  0.76623974  0.75000000  1
  N  N4  1  0.50000000  0.50000000  0.00000000  1
  N  N5  1  0.25000000  0.75000000  0.50000000  1
  Ta  Ta6  1  0.00000000  0.00000000  0.00000000  1
  Ta  Ta7  1  0.75000000  0.25000000  0.50000000  1
