# generated using pymatgen
data_TaTiAl4
_symmetry_space_group_name_H-M   'P 1'
_cell_length_a   3.00118661
_cell_length_b   3.00122495
_cell_length_c   10.94467257
_cell_angle_alpha   90.00147075
_cell_angle_beta   90.00200406
_cell_angle_gamma   85.34480299
_symmetry_Int_Tables_number   1
_chemical_formula_structural   TaTiAl4
_chemical_formula_sum   'Ta1 Ti1 Al4'
_cell_volume   98.25604569
_cell_formula_units_Z   1
loop_
 _symmetry_equiv_pos_site_id
 _symmetry_equiv_pos_as_xyz
  1  'x, y, z'
loop_
 _atom_site_type_symbol
 _atom_site_label
 _atom_site_symmetry_multiplicity
 _atom_site_fract_x
 _atom_site_fract_y
 _atom_site_fract_z
 _atom_site_occupancy
  Ta  Ta0  1  0.00000000  0.00000000  0.00000000  1
  Ti  Ti1  1  0.50000000  0.50000000  0.50000000  1
  Al  Al2  1  0.50000102  0.49999940  0.17197175  1
  Al  Al3  1  0.49999898  0.50000060  0.82802825  1
  Al  Al4  1  0.99999643  0.99999665  0.66323105  1
  Al  Al5  1  0.00000357  0.00000335  0.33676895  1
