# generated using pymatgen
data_WSe2
_symmetry_space_group_name_H-M   'P 1'
_cell_length_a   3.28509025
_cell_length_b   5.69063043
_cell_length_c   18.46547127
_cell_angle_alpha   90.00000000
_cell_angle_beta   90.00000000
_cell_angle_gamma   90.00000000
_symmetry_Int_Tables_number   1
_chemical_formula_structural   WSe2
_chemical_formula_sum   'W2 Se4'
_cell_volume   345.19785085
_cell_formula_units_Z   2
loop_
 _symmetry_equiv_pos_site_id
 _symmetry_equiv_pos_as_xyz
  1  'x, y, z'
loop_
 _atom_site_type_symbol
 _atom_site_label
 _atom_site_symmetry_multiplicity
 _atom_site_fract_x
 _atom_site_fract_y
 _atom_site_fract_z
 _atom_site_occupancy
  Se  Se0  1  0.91920560  0.27380443  0.59383658  1
  Se  Se1  1  0.91920560  0.94089836  0.40616353  1
  Se  Se2  1  0.41920560  0.77380443  0.59383658  1
  Se  Se3  1  0.41920560  0.44089836  0.40616353  1
  W  W4  1  0.41923080  0.10735135  0.49999988  1
  W  W5  1  0.91923080  0.60735135  0.49999988  1
