# generated using pymatgen
data_La2TlCd2In
_symmetry_space_group_name_H-M   'P 1'
_cell_length_a   4.99483312
_cell_length_b   4.99483312
_cell_length_c   7.86896924
_cell_angle_alpha   90.00000000
_cell_angle_beta   90.00000000
_cell_angle_gamma   120.00000000
_symmetry_Int_Tables_number   1
_chemical_formula_structural   La2TlCd2In
_chemical_formula_sum   'La2 Tl1 Cd2 In1'
_cell_volume   170.01625457
_cell_formula_units_Z   1
loop_
 _symmetry_equiv_pos_site_id
 _symmetry_equiv_pos_as_xyz
  1  'x, y, z'
loop_
 _atom_site_type_symbol
 _atom_site_label
 _atom_site_symmetry_multiplicity
 _atom_site_fract_x
 _atom_site_fract_y
 _atom_site_fract_z
 _atom_site_occupancy
  Cd  Cd0  1  0.33333354  0.66666707  0.04464498  1
  Cd  Cd1  1  0.66666688  0.33333238  0.53567499  1
  In  In2  1  0.33333354  0.66666707  0.46213168  1
  La  La3  1  0.00000000  0.00000000  0.24982815  1
  La  La4  1  0.00000000  0.00000000  0.74949333  1
  Tl  Tl5  1  0.66666688  0.33333238  0.95822715  1
