# generated using pymatgen
data_PrHfP2
_symmetry_space_group_name_H-M   'P 1'
_cell_length_a   3.84450965
_cell_length_b   3.84450965
_cell_length_c   7.17362487
_cell_angle_alpha   74.45700366
_cell_angle_beta   74.45700367
_cell_angle_gamma   60.00000005
_symmetry_Int_Tables_number   1
_chemical_formula_structural   PrHfP2
_chemical_formula_sum   'Pr1 Hf1 P2'
_cell_volume   87.31691823
_cell_formula_units_Z   1
loop_
 _symmetry_equiv_pos_site_id
 _symmetry_equiv_pos_as_xyz
  1  'x, y, z'
loop_
 _atom_site_type_symbol
 _atom_site_label
 _atom_site_symmetry_multiplicity
 _atom_site_fract_x
 _atom_site_fract_y
 _atom_site_fract_z
 _atom_site_occupancy
  Pr  Pr0  1  0.49620921  0.49620921  0.51137237  1
  Hf  Hf1  1  0.66982640  0.66982640  0.99051981  1
  P  P2  1  0.07213273  0.07213273  0.78360182  1
  P  P3  1  0.26183167  0.26183167  0.21450499  1
