# generated using pymatgen
data_Mg4ZrTl
_symmetry_space_group_name_H-M   'P 1'
_cell_length_a   5.83703433
_cell_length_b   5.83703433
_cell_length_c   5.83703433
_cell_angle_alpha   60.00000000
_cell_angle_beta   60.00000000
_cell_angle_gamma   60.00000000
_symmetry_Int_Tables_number   1
_chemical_formula_structural   Mg4ZrTl
_chemical_formula_sum   'Mg4 Zr1 Tl1'
_cell_volume   140.62474435
_cell_formula_units_Z   1
loop_
 _symmetry_equiv_pos_site_id
 _symmetry_equiv_pos_as_xyz
  1  'x, y, z'
loop_
 _atom_site_type_symbol
 _atom_site_label
 _atom_site_symmetry_multiplicity
 _atom_site_fract_x
 _atom_site_fract_y
 _atom_site_fract_z
 _atom_site_occupancy
  Mg  Mg0  1  0.87755764  0.37414745  0.37414745  1
  Mg  Mg1  1  0.37414745  0.37414745  0.87755764  1
  Mg  Mg2  1  0.37414745  0.87755764  0.37414745  1
  Mg  Mg3  1  0.37414745  0.37414745  0.37414745  1
  Zr  Zr4  1  0.00000000  0.00000000  0.00000000  1
  Tl  Tl5  1  0.75000000  0.75000000  0.75000000  1
