# generated using pymatgen
data_Pu2USe6
_symmetry_space_group_name_H-M   'P 1'
_cell_length_a   6.57651956
_cell_length_b   6.57651956
_cell_length_c   12.86897487
_cell_angle_alpha   90.00000000
_cell_angle_beta   90.00000000
_cell_angle_gamma   90.00000000
_symmetry_Int_Tables_number   1
_chemical_formula_structural   Pu2USe6
_chemical_formula_sum   'Pu4 U2 Se12'
_cell_volume   556.59100706
_cell_formula_units_Z   2
loop_
 _symmetry_equiv_pos_site_id
 _symmetry_equiv_pos_as_xyz
  1  'x, y, z'
loop_
 _atom_site_type_symbol
 _atom_site_label
 _atom_site_symmetry_multiplicity
 _atom_site_fract_x
 _atom_site_fract_y
 _atom_site_fract_z
 _atom_site_occupancy
  Pu  Pu0  1  0.00000000  0.00000000  0.33365948  1
  Pu  Pu1  1  0.50000000  0.50000000  0.83365948  1
  Pu  Pu2  1  0.50000000  0.50000000  0.16634052  1
  Pu  Pu3  1  0.00000000  0.00000000  0.66634052  1
  U  U4  1  0.00000000  0.00000000  0.00000000  1
  U  U5  1  0.50000000  0.50000000  0.50000000  1
  Se  Se6  1  0.30716983  0.30716983  0.33885082  1
  Se  Se7  1  0.69283017  0.69283017  0.33885082  1
  Se  Se8  1  0.19283017  0.80716983  0.83885082  1
  Se  Se9  1  0.80716983  0.19283017  0.83885082  1
  Se  Se10  1  0.19283017  0.80716983  0.16114918  1
  Se  Se11  1  0.80716983  0.19283017  0.16114918  1
  Se  Se12  1  0.30716983  0.30716983  0.66114918  1
  Se  Se13  1  0.69283017  0.69283017  0.66114918  1
  Se  Se14  1  0.29758310  0.29758310  0.00000000  1
  Se  Se15  1  0.70241690  0.70241690  0.00000000  1
  Se  Se16  1  0.20241690  0.79758310  0.50000000  1
  Se  Se17  1  0.79758310  0.20241690  0.50000000  1
