# generated using pymatgen
data_SrHg3
_symmetry_space_group_name_H-M   'P 1'
_cell_length_a   4.12130073
_cell_length_b   4.04322898
_cell_length_c   7.67624934
_cell_angle_alpha   64.40155919
_cell_angle_beta   90.00000000
_cell_angle_gamma   90.00000000
_symmetry_Int_Tables_number   1
_chemical_formula_structural   SrHg3
_chemical_formula_sum   'Sr1 Hg3'
_cell_volume   115.35681947
_cell_formula_units_Z   1
loop_
 _symmetry_equiv_pos_site_id
 _symmetry_equiv_pos_as_xyz
  1  'x, y, z'
loop_
 _atom_site_type_symbol
 _atom_site_label
 _atom_site_symmetry_multiplicity
 _atom_site_fract_x
 _atom_site_fract_y
 _atom_site_fract_z
 _atom_site_occupancy
  Sr  Sr0  1  0.50000000  0.25000000  0.25000000  1
  Hg  Hg1  1  0.00000000  0.97378161  0.98310188  1
  Hg  Hg2  1  0.50000000  0.75000000  0.75000000  1
  Hg  Hg3  1  0.00000000  0.52621839  0.51689812  1
