# generated using pymatgen
data_Ho2CdHgAu4
_symmetry_space_group_name_H-M   'P 1'
_cell_length_a   4.93473483
_cell_length_b   4.93473484
_cell_length_c   8.50571594
_cell_angle_alpha   73.13704796
_cell_angle_beta   73.13704798
_cell_angle_gamma   59.99999999
_symmetry_Int_Tables_number   1
_chemical_formula_structural   Ho2CdHgAu4
_chemical_formula_sum   'Ho2 Cd1 Hg1 Au4'
_cell_volume   169.01577376
_cell_formula_units_Z   1
loop_
 _symmetry_equiv_pos_site_id
 _symmetry_equiv_pos_as_xyz
  1  'x, y, z'
loop_
 _atom_site_type_symbol
 _atom_site_label
 _atom_site_symmetry_multiplicity
 _atom_site_fract_x
 _atom_site_fract_y
 _atom_site_fract_z
 _atom_site_occupancy
  Ho  Ho0  1  0.75186739  0.75186739  0.74439783  1
  Ho  Ho1  1  0.24813261  0.24813261  0.25560217  1
  Cd  Cd2  1  0.00000000  0.00000000  0.00000000  1
  Hg  Hg3  1  0.50000000  0.50000000  0.50000000  1
  Au  Au4  1  0.37294378  0.37294378  0.88116866  1
  Au  Au5  1  0.87794624  0.87794624  0.36616127  1
  Au  Au6  1  0.12205376  0.12205376  0.63383873  1
  Au  Au7  1  0.62705622  0.62705622  0.11883134  1
