# generated using pymatgen
data_As2Ru2Pt
_symmetry_space_group_name_H-M   'P 1'
_cell_length_a   7.17910919
_cell_length_b   7.17910919
_cell_length_c   2.92324988
_cell_angle_alpha   90.00000000
_cell_angle_beta   90.00000000
_cell_angle_gamma   90.00000000
_symmetry_Int_Tables_number   1
_chemical_formula_structural   As2Ru2Pt
_chemical_formula_sum   'As4 Ru4 Pt2'
_cell_volume   150.66315513
_cell_formula_units_Z   2
loop_
 _symmetry_equiv_pos_site_id
 _symmetry_equiv_pos_as_xyz
  1  'x, y, z'
loop_
 _atom_site_type_symbol
 _atom_site_label
 _atom_site_symmetry_multiplicity
 _atom_site_fract_x
 _atom_site_fract_y
 _atom_site_fract_z
 _atom_site_occupancy
  Ru  Ru0  1  0.14385908  0.64385908  0.50000000  1
  Ru  Ru1  1  0.64385908  0.85614092  0.50000000  1
  Ru  Ru2  1  0.85614092  0.35614092  0.50000000  1
  Ru  Ru3  1  0.35614092  0.14385908  0.50000000  1
  As  As4  1  0.34759373  0.84759373  0.00000000  1
  As  As5  1  0.84759373  0.65240627  0.00000000  1
  As  As6  1  0.65240627  0.15240627  0.00000000  1
  As  As7  1  0.15240627  0.34759373  0.00000000  1
  Pt  Pt8  1  0.00000000  0.00000000  0.00000000  1
  Pt  Pt9  1  0.50000000  0.50000000  0.00000000  1
