# generated using pymatgen
data_CaAlS2
_symmetry_space_group_name_H-M   'P 1'
_cell_length_a   4.79803071
_cell_length_b   5.21049709
_cell_length_c   7.86291546
_cell_angle_alpha   90.00014772
_cell_angle_beta   90.00032727
_cell_angle_gamma   91.06874833
_symmetry_Int_Tables_number   1
_chemical_formula_structural   CaAlS2
_chemical_formula_sum   'Ca2 Al2 S4'
_cell_volume   196.53967274
_cell_formula_units_Z   2
loop_
 _symmetry_equiv_pos_site_id
 _symmetry_equiv_pos_as_xyz
  1  'x, y, z'
loop_
 _atom_site_type_symbol
 _atom_site_label
 _atom_site_symmetry_multiplicity
 _atom_site_fract_x
 _atom_site_fract_y
 _atom_site_fract_z
 _atom_site_occupancy
  Ca  Ca0  1  0.20956018  0.80573050  0.78696473  1
  Ca  Ca1  1  0.70955150  0.30574694  0.42903014  1
  Al  Al2  1  0.19487517  0.85217850  0.21958594  1
  Al  Al3  1  0.69488395  0.35216514  0.99638926  1
  S  S4  1  0.69492344  0.71297811  0.19599714  1
  S  S5  1  0.70457080  0.56248511  0.73700364  1
  S  S6  1  0.20456730  0.06247265  0.47895770  1
  S  S7  1  0.19492821  0.21298186  0.01995279  1
