# generated using pymatgen
data_Na2Cr2IrO6
_symmetry_space_group_name_H-M   'P 1'
_cell_length_a   5.25503217
_cell_length_b   5.25503217
_cell_length_c   5.76278383
_cell_angle_alpha   98.68560836
_cell_angle_beta   98.68560836
_cell_angle_gamma   119.90624571
_symmetry_Int_Tables_number   1
_chemical_formula_structural   Na2Cr2IrO6
_chemical_formula_sum   'Na2 Cr2 Ir1 O6'
_cell_volume   131.52685726
_cell_formula_units_Z   1
loop_
 _symmetry_equiv_pos_site_id
 _symmetry_equiv_pos_as_xyz
  1  'x, y, z'
loop_
 _atom_site_type_symbol
 _atom_site_label
 _atom_site_symmetry_multiplicity
 _atom_site_fract_x
 _atom_site_fract_y
 _atom_site_fract_z
 _atom_site_occupancy
  Na  Na0  1  0.83327441  0.16672559  0.00000000  1
  Na  Na1  1  0.16672559  0.83327441  0.00000000  1
  Cr  Cr2  1  0.33524666  0.66475334  0.50000000  1
  Cr  Cr3  1  0.66475334  0.33524666  0.50000000  1
  Ir  Ir4  1  0.00000000  0.00000000  0.50000000  1
  O  O5  1  0.73091712  0.73091712  0.69348022  1
  O  O6  1  0.05779385  0.39859084  0.68998237  1
  O  O7  1  0.26908288  0.26908288  0.30651978  1
  O  O8  1  0.39859084  0.05779385  0.68998237  1
  O  O9  1  0.94220615  0.60140916  0.31001763  1
  O  O10  1  0.60140916  0.94220615  0.31001763  1
