# generated using pymatgen
data_CsPrHgS3
_symmetry_space_group_name_H-M   'P 1'
_cell_length_a   11.00165363
_cell_length_b   4.30226871
_cell_length_c   15.76269594
_cell_angle_alpha   90.00000000
_cell_angle_beta   90.00000000
_cell_angle_gamma   90.00000000
_symmetry_Int_Tables_number   1
_chemical_formula_structural   CsPrHgS3
_chemical_formula_sum   'Cs4 Pr4 Hg4 S12'
_cell_volume   746.08102985
_cell_formula_units_Z   4
loop_
 _symmetry_equiv_pos_site_id
 _symmetry_equiv_pos_as_xyz
  1  'x, y, z'
loop_
 _atom_site_type_symbol
 _atom_site_label
 _atom_site_symmetry_multiplicity
 _atom_site_fract_x
 _atom_site_fract_y
 _atom_site_fract_z
 _atom_site_occupancy
  Cs  Cs0  1  0.01985792  0.25000066  0.17032873  1
  Cs  Cs1  1  0.51985821  0.25000066  0.32967076  1
  Cs  Cs2  1  0.48014237  0.74999964  0.67032886  1
  Cs  Cs3  1  0.98014265  0.74999964  0.82967089  1
  Hg  Hg4  1  0.31020791  0.74999964  0.14097842  1
  Hg  Hg5  1  0.81020820  0.74999964  0.35902107  1
  Hg  Hg6  1  0.18979238  0.25000066  0.64097855  1
  Hg  Hg7  1  0.68979267  0.25000066  0.85902120  1
  Pr  Pr8  1  0.65131391  0.74999964  0.05856676  1
  Pr  Pr9  1  0.15131362  0.74999964  0.44143274  1
  Pr  Pr10  1  0.84868605  0.25000066  0.55856689  1
  Pr  Pr11  1  0.34868667  0.25000066  0.94143286  1
  S  S12  1  0.19842744  0.74999964  0.00592982  1
  S  S13  1  0.48244293  0.25000066  0.10145853  1
  S  S14  1  0.77499531  0.74999964  0.20882088  1
  S  S15  1  0.27499502  0.74999964  0.29117862  1
  S  S16  1  0.98244322  0.25000066  0.39854096  1
  S  S17  1  0.69842773  0.74999964  0.49406967  1
  S  S18  1  0.30157285  0.25000066  0.50592995  1
  S  S19  1  0.01755736  0.74999964  0.60145866  1
  S  S20  1  0.72500465  0.25000066  0.70882101  1
  S  S21  1  0.22500527  0.25000066  0.79117875  1
  S  S22  1  0.51755765  0.74999964  0.89854109  1
  S  S23  1  0.80157314  0.25000066  0.99406980  1
