# generated using pymatgen
data_RhO2
_symmetry_space_group_name_H-M   'P 1'
_cell_length_a   5.37087590
_cell_length_b   5.37087590
_cell_length_c   16.87265544
_cell_angle_alpha   90.00000000
_cell_angle_beta   90.00000000
_cell_angle_gamma   120.00000000
_symmetry_Int_Tables_number   1
_chemical_formula_structural   RhO2
_chemical_formula_sum   'Rh3 O6'
_cell_volume   421.50652771
_cell_formula_units_Z   3
loop_
 _symmetry_equiv_pos_site_id
 _symmetry_equiv_pos_as_xyz
  1  'x, y, z'
loop_
 _atom_site_type_symbol
 _atom_site_label
 _atom_site_symmetry_multiplicity
 _atom_site_fract_x
 _atom_site_fract_y
 _atom_site_fract_z
 _atom_site_occupancy
  Rh  Rh0  1  0.66672007  0.00000000  0.49999878  1
  Rh  Rh1  1  0.00000000  0.66672007  0.49999878  1
  Rh  Rh2  1  0.33327993  0.33327993  0.49999878  1
  O  O3  1  0.33338214  0.00000000  0.55547053  1
  O  O4  1  0.00000000  0.33338214  0.55547053  1
  O  O5  1  0.66661786  0.66661786  0.55547053  1
  O  O6  1  0.33333333  0.66666667  0.44455457  1
  O  O7  1  0.66666667  0.33333333  0.44455457  1
  O  O8  1  0.00000000  0.00000000  0.44448293  1
