# generated using pymatgen
data_PrGa6Ni
_symmetry_space_group_name_H-M   'P 1'
_cell_length_a   6.40366101
_cell_length_b   6.40366101
_cell_length_c   4.24867780
_cell_angle_alpha   90.00000000
_cell_angle_beta   90.00000000
_cell_angle_gamma   120.00000000
_symmetry_Int_Tables_number   1
_chemical_formula_structural   PrGa6Ni
_chemical_formula_sum   'Pr1 Ga6 Ni1'
_cell_volume   150.88327288
_cell_formula_units_Z   1
loop_
 _symmetry_equiv_pos_site_id
 _symmetry_equiv_pos_as_xyz
  1  'x, y, z'
loop_
 _atom_site_type_symbol
 _atom_site_label
 _atom_site_symmetry_multiplicity
 _atom_site_fract_x
 _atom_site_fract_y
 _atom_site_fract_z
 _atom_site_occupancy
  Ga  Ga0  1  0.27919611  0.13959741  0.00000000  1
  Ga  Ga1  1  0.86040114  0.13959741  0.00000000  1
  Ga  Ga2  1  0.86040133  0.72080281  0.00000000  1
  Ga  Ga3  1  0.18966203  0.37932406  0.50000026  1
  Ga  Ga4  1  0.18966118  0.81033831  0.50000026  1
  Ga  Ga5  1  0.62067713  0.81033831  0.50000026  1
  Ni  Ni6  1  0.33333375  0.66666749  0.00000000  1
  Pr  Pr7  1  0.66666680  0.33333375  0.50000026  1
