# generated using pymatgen
data_FeGeSe3
_symmetry_space_group_name_H-M   'P 1'
_cell_length_a   6.59764538
_cell_length_b   6.67158007
_cell_length_c   18.66831775
_cell_angle_alpha   90.00000000
_cell_angle_beta   90.00000000
_cell_angle_gamma   90.00011648
_symmetry_Int_Tables_number   1
_chemical_formula_structural   FeGeSe3
_chemical_formula_sum   'Fe2 Ge2 Se6'
_cell_volume   821.71810456
_cell_formula_units_Z   2
loop_
 _symmetry_equiv_pos_site_id
 _symmetry_equiv_pos_as_xyz
  1  'x, y, z'
loop_
 _atom_site_type_symbol
 _atom_site_label
 _atom_site_symmetry_multiplicity
 _atom_site_fract_x
 _atom_site_fract_y
 _atom_site_fract_z
 _atom_site_occupancy
  Fe  Fe0  1  0.79034210  0.73570695  0.49999999  1
  Fe  Fe1  1  0.20966033  0.23570609  0.49999999  1
  Ge  Ge2  1  0.41969411  0.82823554  0.50000000  1
  Ge  Ge3  1  0.58030620  0.32823562  0.49999999  1
  Se  Se4  1  0.65476331  0.55942936  0.59824952  1
  Se  Se5  1  0.34523438  0.05942620  0.40175019  1
  Se  Se6  1  0.34523438  0.05942620  0.59824983  1
  Se  Se7  1  0.65476332  0.55942935  0.40175049  1
  Se  Se8  1  0.13677733  0.59031704  0.50000000  1
  Se  Se9  1  0.86322455  0.09031767  0.50000000  1
