# generated using pymatgen
data_BaY2
_symmetry_space_group_name_H-M   'P 1'
_cell_length_a   10.45804609
_cell_length_b   10.45804609
_cell_length_c   3.62217806
_cell_angle_alpha   90.00000000
_cell_angle_beta   90.00000000
_cell_angle_gamma   120.00000006
_symmetry_Int_Tables_number   1
_chemical_formula_structural   BaY2
_chemical_formula_sum   'Ba3 Y6'
_cell_volume   343.08484147
_cell_formula_units_Z   3
loop_
 _symmetry_equiv_pos_site_id
 _symmetry_equiv_pos_as_xyz
  1  'x, y, z'
loop_
 _atom_site_type_symbol
 _atom_site_label
 _atom_site_symmetry_multiplicity
 _atom_site_fract_x
 _atom_site_fract_y
 _atom_site_fract_z
 _atom_site_occupancy
  Ba  Ba0  1  0.33333333  0.66666667  0.00000000  1
  Ba  Ba1  1  0.66666667  0.33333333  0.00000000  1
  Ba  Ba2  1  0.00000000  0.00000000  0.50000000  1
  Y  Y3  1  0.32011041  0.00000000  0.00000000  1
  Y  Y4  1  0.00000000  0.32011041  0.00000000  1
  Y  Y5  1  0.67988959  0.67988959  0.00000000  1
  Y  Y6  1  0.65500871  0.00000000  0.50000000  1
  Y  Y7  1  0.00000000  0.65500871  0.50000000  1
  Y  Y8  1  0.34499129  0.34499129  0.50000000  1
