# generated using pymatgen
data_Li3(GePt)2
_symmetry_space_group_name_H-M   'P 1'
_cell_length_a   4.34843607
_cell_length_b   4.34843544
_cell_length_c   6.78688793
_cell_angle_alpha   90.29241299
_cell_angle_beta   108.42615339
_cell_angle_gamma   119.91433029
_symmetry_Int_Tables_number   1
_chemical_formula_structural   Li3(GePt)2
_chemical_formula_sum   'Li3 Ge2 Pt2'
_cell_volume   103.44517166
_cell_formula_units_Z   1
loop_
 _symmetry_equiv_pos_site_id
 _symmetry_equiv_pos_as_xyz
  1  'x, y, z'
loop_
 _atom_site_type_symbol
 _atom_site_label
 _atom_site_symmetry_multiplicity
 _atom_site_fract_x
 _atom_site_fract_y
 _atom_site_fract_z
 _atom_site_occupancy
  Li  Li0  1  0.00000000  0.00000000  0.00000000  1
  Li  Li1  1  0.72642461  0.86282170  0.58924630  1
  Li  Li2  1  0.27357539  0.13717830  0.41075370  1
  Ge  Ge3  1  0.45132157  0.72584093  0.17716250  1
  Ge  Ge4  1  0.54867843  0.27415907  0.82283750  1
  Pt  Pt5  1  0.17731873  0.58838935  0.76570808  1
  Pt  Pt6  1  0.82268127  0.41161065  0.23429192  1
