# generated using pymatgen
data_Ga2Ni3Rh
_symmetry_space_group_name_H-M   'P 1'
_cell_length_a   3.86837712
_cell_length_b   5.26789115
_cell_length_c   7.41186551
_cell_angle_alpha   90.00000000
_cell_angle_beta   90.00000000
_cell_angle_gamma   90.00000000
_symmetry_Int_Tables_number   1
_chemical_formula_structural   Ga2Ni3Rh
_chemical_formula_sum   'Ga4 Ni6 Rh2'
_cell_volume   151.04040062
_cell_formula_units_Z   2
loop_
 _symmetry_equiv_pos_site_id
 _symmetry_equiv_pos_as_xyz
  1  'x, y, z'
loop_
 _atom_site_type_symbol
 _atom_site_label
 _atom_site_symmetry_multiplicity
 _atom_site_fract_x
 _atom_site_fract_y
 _atom_site_fract_z
 _atom_site_occupancy
  Ga  Ga0  1  0.50000000  0.69408266  0.85517759  1
  Ga  Ga1  1  0.50000000  0.19408266  0.14482241  1
  Ga  Ga2  1  0.00000000  0.30249789  0.65463525  1
  Ga  Ga3  1  0.00000000  0.80249789  0.34536475  1
  Ni  Ni4  1  0.00000000  0.45215451  0.98211550  1
  Ni  Ni5  1  0.00000000  0.95215451  0.01788450  1
  Ni  Ni6  1  0.50000000  0.66500958  0.17632134  1
  Ni  Ni7  1  0.50000000  0.16500958  0.82367866  1
  Ni  Ni8  1  0.00000000  0.33904597  0.31406000  1
  Ni  Ni9  1  0.00000000  0.83904597  0.68594000  1
  Rh  Rh10  1  0.50000000  0.54721039  0.52903803  1
  Rh  Rh11  1  0.50000000  0.04721039  0.47096197  1
