# generated using pymatgen
data_LaMgAlPd3
_symmetry_space_group_name_H-M   'P 1'
_cell_length_a   5.89865638
_cell_length_b   6.86623939
_cell_length_c   7.05771405
_cell_angle_alpha   119.10653783
_cell_angle_beta   90.00000000
_cell_angle_gamma   90.00000000
_symmetry_Int_Tables_number   1
_chemical_formula_structural   LaMgAlPd3
_chemical_formula_sum   'La2 Mg2 Al2 Pd6'
_cell_volume   249.75071781
_cell_formula_units_Z   2
loop_
 _symmetry_equiv_pos_site_id
 _symmetry_equiv_pos_as_xyz
  1  'x, y, z'
loop_
 _atom_site_type_symbol
 _atom_site_label
 _atom_site_symmetry_multiplicity
 _atom_site_fract_x
 _atom_site_fract_y
 _atom_site_fract_z
 _atom_site_occupancy
  La  La0  1  0.75000000  0.30024659  0.60049318  1
  La  La1  1  0.25000000  0.69975341  0.39950682  1
  Mg  Mg2  1  0.25000000  0.95883399  0.91766698  1
  Mg  Mg3  1  0.75000000  0.04116601  0.08233302  1
  Al  Al4  1  0.25000000  0.37685443  0.75370887  1
  Al  Al5  1  0.75000000  0.62314557  0.24629113  1
  Pd  Pd6  1  0.25000000  0.17691284  0.35382467  1
  Pd  Pd7  1  0.00000000  0.29743985  0.00000000  1
  Pd  Pd8  1  0.50000000  0.70256015  1.00000000  1
  Pd  Pd9  1  0.50000000  0.29743985  0.00000000  1
  Pd  Pd10  1  0.00000000  0.70256015  1.00000000  1
  Pd  Pd11  1  0.75000000  0.82308716  0.64617533  1
