# generated using pymatgen
data_Hf2SnPt2
_symmetry_space_group_name_H-M   'P 1'
_cell_length_a   7.54231254
_cell_length_b   7.54231254
_cell_length_c   3.42032104
_cell_angle_alpha   90.00000000
_cell_angle_beta   90.00000000
_cell_angle_gamma   90.00000000
_symmetry_Int_Tables_number   1
_chemical_formula_structural   Hf2SnPt2
_chemical_formula_sum   'Hf4 Sn2 Pt4'
_cell_volume   194.57001904
_cell_formula_units_Z   2
loop_
 _symmetry_equiv_pos_site_id
 _symmetry_equiv_pos_as_xyz
  1  'x, y, z'
loop_
 _atom_site_type_symbol
 _atom_site_label
 _atom_site_symmetry_multiplicity
 _atom_site_fract_x
 _atom_site_fract_y
 _atom_site_fract_z
 _atom_site_occupancy
  Hf  Hf0  1  0.33385914  0.16614135  0.49999985  1
  Hf  Hf1  1  0.83385831  0.33385914  0.49999985  1
  Hf  Hf2  1  0.16614135  0.66614052  0.49999985  1
  Hf  Hf3  1  0.66614052  0.83385831  0.49999985  1
  Pt  Pt4  1  0.63038358  0.13038309  0.00000000  1
  Pt  Pt5  1  0.13038309  0.36961608  0.00000000  1
  Pt  Pt6  1  0.86961658  0.63038358  0.00000000  1
  Pt  Pt7  1  0.36961608  0.86961658  0.00000000  1
  Sn  Sn8  1  0.00000000  0.00000000  0.00000000  1
  Sn  Sn9  1  0.50000049  0.50000049  0.00000000  1
