# generated using pymatgen
data_Ce3YEr3S8
_symmetry_space_group_name_H-M   'P 1'
_cell_length_a   7.83379833
_cell_length_b   7.83388530
_cell_length_c   7.94548285
_cell_angle_alpha   119.53736214
_cell_angle_beta   90.00036829
_cell_angle_gamma   120.00012824
_symmetry_Int_Tables_number   1
_chemical_formula_structural   Ce3YEr3S8
_chemical_formula_sum   'Ce3 Y1 Er3 S8'
_cell_volume   347.17983492
_cell_formula_units_Z   1
loop_
 _symmetry_equiv_pos_site_id
 _symmetry_equiv_pos_as_xyz
  1  'x, y, z'
loop_
 _atom_site_type_symbol
 _atom_site_label
 _atom_site_symmetry_multiplicity
 _atom_site_fract_x
 _atom_site_fract_y
 _atom_site_fract_z
 _atom_site_occupancy
  Ce  Ce0  1  0.00000000  0.00000000  0.00000000  1
  Ce  Ce1  1  -0.00000000  0.50000000  -0.00000000  1
  Ce  Ce2  1  0.50000000  0.50000000  -0.00000000  1
  Y  Y3  1  0.00000000  0.00000000  0.50000000  1
  Er  Er4  1  0.50000000  0.00000000  0.50000000  1
  Er  Er5  1  0.50000000  0.50000000  0.50000000  1
  Er  Er6  1  -0.00000000  0.50000000  0.50000000  1
  S  S7  1  0.25514551  0.51029696  0.26545730  1
  S  S8  1  0.74485449  0.48970304  0.73454270  1
  S  S9  1  0.75144404  0.50290552  0.26171934  1
  S  S10  1  0.24855596  0.49709448  0.73828066  1
  S  S11  1  0.75143477  0.01024379  0.26171480  1
  S  S12  1  0.24856523  0.98975621  0.73828520  1
  S  S13  1  0.25881096  0.01025168  0.26171220  1
  S  S14  1  0.74118904  0.98974832  0.73828780  1
