# generated using pymatgen
data_Er4ZnRu
_symmetry_space_group_name_H-M   'P 1'
_cell_length_a   3.46641284
_cell_length_b   3.46641284
_cell_length_c   12.27230813
_cell_angle_alpha   90.00055417
_cell_angle_beta   90.00055300
_cell_angle_gamma   89.99998667
_symmetry_Int_Tables_number   1
_chemical_formula_structural   Er4ZnRu
_chemical_formula_sum   'Er4 Zn1 Ru1'
_cell_volume   147.46427476
_cell_formula_units_Z   1
loop_
 _symmetry_equiv_pos_site_id
 _symmetry_equiv_pos_as_xyz
  1  'x, y, z'
loop_
 _atom_site_type_symbol
 _atom_site_label
 _atom_site_symmetry_multiplicity
 _atom_site_fract_x
 _atom_site_fract_y
 _atom_site_fract_z
 _atom_site_occupancy
  Er  Er0  1  0.49997817  0.49997817  0.85851832  1
  Er  Er1  1  0.50002183  0.50002183  0.14148168  1
  Er  Er2  1  0.99997092  0.99997092  0.63095262  1
  Er  Er3  1  0.00002908  0.00002908  0.36904738  1
  Zn  Zn4  1  0.00000000  0.00000000  0.00000000  1
  Ru  Ru5  1  0.50000000  0.50000000  0.50000000  1
