# generated using pymatgen
data_NdTh4Au5
_symmetry_space_group_name_H-M   'P 1'
_cell_length_a   3.71569131
_cell_length_b   3.71569131
_cell_length_c   18.62309239
_cell_angle_alpha   89.99999689
_cell_angle_beta   90.00000000
_cell_angle_gamma   90.00000000
_symmetry_Int_Tables_number   1
_chemical_formula_structural   NdTh4Au5
_chemical_formula_sum   'Nd1 Th4 Au5'
_cell_volume   257.11715344
_cell_formula_units_Z   1
loop_
 _symmetry_equiv_pos_site_id
 _symmetry_equiv_pos_as_xyz
  1  'x, y, z'
loop_
 _atom_site_type_symbol
 _atom_site_label
 _atom_site_symmetry_multiplicity
 _atom_site_fract_x
 _atom_site_fract_y
 _atom_site_fract_z
 _atom_site_occupancy
  Nd  Nd0  1  0.00000000  0.00000000  0.00000000  1
  Th  Th1  1  0.00000000  0.00000000  0.20046469  1
  Th  Th2  1  0.00000000  -0.00000000  0.40027135  1
  Th  Th3  1  0.00000000  1.00000000  0.59972865  1
  Th  Th4  1  0.00000000  1.00000000  0.79953531  1
  Au  Au5  1  0.50000000  0.50000000  0.09975429  1
  Au  Au6  1  0.50000000  0.50000000  0.30021648  1
  Au  Au7  1  0.50000000  0.50000000  0.50000000  1
  Au  Au8  1  0.50000000  0.50000000  0.69978352  1
  Au  Au9  1  0.50000000  0.50000000  0.90024571  1
