# generated using pymatgen
data_NiW
_symmetry_space_group_name_H-M   'P 1'
_cell_length_a   4.28415247
_cell_length_b   4.28415247
_cell_length_c   4.28415247
_cell_angle_alpha   59.99731312
_cell_angle_beta   59.99731313
_cell_angle_gamma   59.99731319
_symmetry_Int_Tables_number   1
_chemical_formula_structural   NiW
_chemical_formula_sum   'Ni2 W2'
_cell_volume   55.59724878
_cell_formula_units_Z   2
loop_
 _symmetry_equiv_pos_site_id
 _symmetry_equiv_pos_as_xyz
  1  'x, y, z'
loop_
 _atom_site_type_symbol
 _atom_site_label
 _atom_site_symmetry_multiplicity
 _atom_site_fract_x
 _atom_site_fract_y
 _atom_site_fract_z
 _atom_site_occupancy
  Ni  Ni0  1  0.37497366  0.37497366  0.37497366  1
  Ni  Ni1  1  0.62502634  0.62502634  0.62502634  1
  W  W2  1  0.12498080  0.12498080  0.12498080  1
  W  W3  1  0.87501920  0.87501920  0.87501920  1
