# generated using pymatgen
data_GaAgRu2C
_symmetry_space_group_name_H-M   'P 1'
_cell_length_a   5.05200052
_cell_length_b   3.68271654
_cell_length_c   5.05200052
_cell_angle_alpha   90.00000000
_cell_angle_beta   90.00000000
_cell_angle_gamma   90.00000000
_symmetry_Int_Tables_number   1
_chemical_formula_structural   GaAgRu2C
_chemical_formula_sum   'Ga1 Ag1 Ru2 C1'
_cell_volume   93.99290352
_cell_formula_units_Z   1
loop_
 _symmetry_equiv_pos_site_id
 _symmetry_equiv_pos_as_xyz
  1  'x, y, z'
loop_
 _atom_site_type_symbol
 _atom_site_label
 _atom_site_symmetry_multiplicity
 _atom_site_fract_x
 _atom_site_fract_y
 _atom_site_fract_z
 _atom_site_occupancy
  Ru  Ru0  1  0.00000000  0.00000000  0.50000000  1
  Ru  Ru1  1  0.50000000  0.00000000  0.00000000  1
  C  C2  1  0.00000000  0.50000000  0.00000000  1
  Ga  Ga3  1  0.50000000  0.50000000  0.50000000  1
  Ag  Ag4  1  0.00000000  0.00000000  0.00000000  1
