# generated using pymatgen
data_La4Si2Se3O7
_symmetry_space_group_name_H-M   'P 1'
_cell_length_a   11.45228435
_cell_length_b   11.45228603
_cell_length_c   11.45228565
_cell_angle_alpha   99.49872524
_cell_angle_beta   114.67603902
_cell_angle_gamma   114.67603548
_symmetry_Int_Tables_number   1
_chemical_formula_structural   La4Si2Se3O7
_chemical_formula_sum   'La16 Si8 Se12 O28'
_cell_volume   1130.66411928
_cell_formula_units_Z   4
loop_
 _symmetry_equiv_pos_site_id
 _symmetry_equiv_pos_as_xyz
  1  'x, y, z'
loop_
 _atom_site_type_symbol
 _atom_site_label
 _atom_site_symmetry_multiplicity
 _atom_site_fract_x
 _atom_site_fract_y
 _atom_site_fract_z
 _atom_site_occupancy
  La  La0  1  0.25000000  0.95284713  0.04715287  1
  La  La1  1  0.25000000  0.29715330  0.70284670  1
  La  La2  1  0.09430511  0.04715292  0.29715270  1
  La  La3  1  0.40569489  0.70284730  0.95284708  1
  La  La4  1  0.90569489  0.95284708  0.70284730  1
  La  La5  1  0.75000000  0.70284670  0.29715330  1
  La  La6  1  0.75000000  0.04715287  0.95284713  1
  La  La7  1  0.59430511  0.29715270  0.04715292  1
  La  La8  1  0.98997695  0.33430117  0.82427763  1
  La  La9  1  0.51002307  0.33430131  0.34432447  1
  La  La10  1  0.51002305  0.17572237  0.66569883  1
  La  La11  1  0.01002307  0.34432447  0.33430131  1
  La  La12  1  0.48997695  0.82427763  0.33430117  1
  La  La13  1  0.48997693  0.66569869  0.65567553  1
  La  La14  1  0.01002305  0.66569883  0.17572237  1
  La  La15  1  0.98997693  0.65567553  0.66569869  1
  Si  Si16  1  0.62664967  0.09426753  0.22091726  1
  Si  Si17  1  0.87335028  0.09426756  0.46761679  1
  Si  Si18  1  0.87335033  0.77908274  0.90573247  1
  Si  Si19  1  0.37335028  0.46761679  0.09426756  1
  Si  Si20  1  0.12664967  0.22091726  0.09426753  1
  Si  Si21  1  0.12664972  0.90573244  0.53238321  1
  Si  Si22  1  0.37335033  0.90573247  0.77908274  1
  Si  Si23  1  0.62664972  0.53238321  0.90573244  1
  Se  Se24  1  0.35340738  0.00000007  0.35340734  1
  Se  Se25  1  0.35340740  0.35340735  0.49999994  1
  Se  Se26  1  0.14659262  0.64659266  -0.00000007  1
  Se  Se27  1  0.14659260  0.50000006  0.64659265  1
  Se  Se28  1  0.64659262  -0.00000007  0.64659266  1
  Se  Se29  1  0.64659260  0.64659265  0.50000006  1
  Se  Se30  1  0.85340738  0.35340734  0.00000007  1
  Se  Se31  1  0.85340740  0.49999994  0.35340735  1
  Se  Se32  1  0.75000000  0.37500005  0.62499995  1
  Se  Se33  1  0.25000000  0.62499995  0.37500005  1
  Se  Se34  1  0.75000000  0.87500014  0.12499986  1
  Se  Se35  1  0.25000000  0.12499986  0.87500014  1
  O  O36  1  0.52672036  0.17005148  0.19677189  1
  O  O37  1  0.97327967  0.17005161  0.64333028  1
  O  O38  1  0.97327964  0.80322811  0.82994852  1
  O  O39  1  0.47327967  0.64333028  0.17005161  1
  O  O40  1  0.02672036  0.19677189  0.17005148  1
  O  O41  1  0.02672033  0.82994839  0.35666972  1
  O  O42  1  0.47327964  0.82994852  0.80322811  1
  O  O43  1  0.52672033  0.35666972  0.82994839  1
  O  O44  1  0.25000003  0.38883481  0.13883474  1
  O  O45  1  0.75000003  0.13883474  0.38883481  1
  O  O46  1  0.74999997  0.61116519  0.86116526  1
  O  O47  1  0.24999997  0.86116526  0.61116519  1
  O  O48  1  0.27368524  0.84157969  0.84812985  1
  O  O49  1  0.22631480  0.07444451  0.56789342  1
  O  O50  1  0.22631476  0.15187015  0.15842031  1
  O  O51  1  0.49344904  0.56789347  0.84157968  1
  O  O52  1  0.72631480  0.56789342  0.07444451  1
  O  O53  1  0.27368520  0.43210658  0.92555549  1
  O  O54  1  0.99344904  0.84157968  0.56789347  1
  O  O55  1  0.99344887  0.15187025  0.92555552  1
  O  O56  1  0.50655096  0.43210653  0.15842032  1
  O  O57  1  0.77368524  0.84812985  0.84157969  1
  O  O58  1  0.77368520  0.92555549  0.43210658  1
  O  O59  1  0.72631476  0.15842031  0.15187015  1
  O  O60  1  0.00655113  0.84812975  0.07444448  1
  O  O61  1  0.00655096  0.15842032  0.43210653  1
  O  O62  1  0.49344887  0.92555552  0.15187025  1
  O  O63  1  0.50655113  0.07444448  0.84812975  1
