# generated using pymatgen
data_Th2CrCo3As4
_symmetry_space_group_name_H-M   'P 1'
_cell_length_a   4.18288413
_cell_length_b   4.18288413
_cell_length_c   9.62743384
_cell_angle_alpha   90.00000000
_cell_angle_beta   90.00000000
_cell_angle_gamma   90.00000000
_symmetry_Int_Tables_number   1
_chemical_formula_structural   Th2CrCo3As4
_chemical_formula_sum   'Th2 Cr1 Co3 As4'
_cell_volume   168.44658531
_cell_formula_units_Z   1
loop_
 _symmetry_equiv_pos_site_id
 _symmetry_equiv_pos_as_xyz
  1  'x, y, z'
loop_
 _atom_site_type_symbol
 _atom_site_label
 _atom_site_symmetry_multiplicity
 _atom_site_fract_x
 _atom_site_fract_y
 _atom_site_fract_z
 _atom_site_occupancy
  Th  Th0  1  0.50000000  0.00000000  0.24319273  1
  Th  Th1  1  0.00000000  0.50000000  0.75680727  1
  Cr  Cr2  1  0.50000000  0.50000000  0.50000000  1
  Co  Co3  1  0.00000000  0.00000000  0.50000000  1
  Co  Co4  1  0.50000000  0.00000000  0.88708149  1
  Co  Co5  1  0.00000000  0.50000000  0.11291851  1
  As  As6  1  0.50000000  0.50000000  0.00000000  1
  As  As7  1  0.00000000  0.00000000  0.00000000  1
  As  As8  1  0.50000000  0.00000000  0.64008657  1
  As  As9  1  0.00000000  0.50000000  0.35991343  1
