# generated using pymatgen
data_TmAgGe
_symmetry_space_group_name_H-M   'P 1'
_cell_length_a   7.23481285
_cell_length_b   7.23481285
_cell_length_c   4.15944139
_cell_angle_alpha   90.00000000
_cell_angle_beta   90.00000000
_cell_angle_gamma   120.00000000
_symmetry_Int_Tables_number   1
_chemical_formula_structural   TmAgGe
_chemical_formula_sum   'Tm3 Ag3 Ge3'
_cell_volume   188.54726786
_cell_formula_units_Z   3
loop_
 _symmetry_equiv_pos_site_id
 _symmetry_equiv_pos_as_xyz
  1  'x, y, z'
loop_
 _atom_site_type_symbol
 _atom_site_label
 _atom_site_symmetry_multiplicity
 _atom_site_fract_x
 _atom_site_fract_y
 _atom_site_fract_z
 _atom_site_occupancy
  Ag  Ag0  1  0.66666711  0.33333324  0.00000000  1
  Ag  Ag1  1  0.33333324  0.66666648  0.00000000  1
  Ag  Ag2  1  0.00000000  0.00000000  0.49999983  1
  Ge  Ge3  1  0.26453483  0.00000000  0.00000000  1
  Ge  Ge4  1  0.00000000  0.26453461  0.00000000  1
  Ge  Ge5  1  0.73546564  0.73546511  0.00000000  1
  Tm  Tm6  1  0.59483087  0.00000000  0.49999983  1
  Tm  Tm7  1  0.40516893  0.40516912  0.49999983  1
  Tm  Tm8  1  0.00000000  0.59483060  0.49999983  1
