# generated using pymatgen
data_Ca2Tb2Y
_symmetry_space_group_name_H-M   'P 1'
_cell_length_a   9.47519711
_cell_length_b   9.47519580
_cell_length_c   3.90926310
_cell_angle_alpha   90.00000000
_cell_angle_beta   90.00000000
_cell_angle_gamma   90.00000000
_symmetry_Int_Tables_number   1
_chemical_formula_structural   Ca2Tb2Y
_chemical_formula_sum   'Ca4 Tb4 Y2'
_cell_volume   350.97109173
_cell_formula_units_Z   2
loop_
 _symmetry_equiv_pos_site_id
 _symmetry_equiv_pos_as_xyz
  1  'x, y, z'
loop_
 _atom_site_type_symbol
 _atom_site_label
 _atom_site_symmetry_multiplicity
 _atom_site_fract_x
 _atom_site_fract_y
 _atom_site_fract_z
 _atom_site_occupancy
  Ca  Ca0  1  0.32680453  0.82680453  0.50000000  1
  Ca  Ca1  1  0.82680453  0.67319547  0.50000000  1
  Ca  Ca2  1  0.67319547  0.17319547  0.50000000  1
  Ca  Ca3  1  0.17319547  0.32680453  0.50000000  1
  Tb  Tb4  1  0.12521170  0.62521170  0.00000000  1
  Tb  Tb5  1  0.62521170  0.87478830  0.00000000  1
  Tb  Tb6  1  0.87478830  0.37478830  0.00000000  1
  Tb  Tb7  1  0.37478830  0.12521170  0.00000000  1
  Y  Y8  1  0.00000000  0.00000000  0.00000000  1
  Y  Y9  1  0.50000000  0.50000000  0.00000000  1
