# generated using pymatgen
data_MgCu5Au8
_symmetry_space_group_name_H-M   'P 1'
_cell_length_a   6.75054105
_cell_length_b   6.75054105
_cell_length_c   6.75054104
_cell_angle_alpha   110.44736585
_cell_angle_beta   107.53608911
_cell_angle_gamma   110.44736580
_symmetry_Int_Tables_number   1
_chemical_formula_structural   MgCu5Au8
_chemical_formula_sum   'Mg1 Cu5 Au8'
_cell_volume   236.60488069
_cell_formula_units_Z   1
loop_
 _symmetry_equiv_pos_site_id
 _symmetry_equiv_pos_as_xyz
  1  'x, y, z'
loop_
 _atom_site_type_symbol
 _atom_site_label
 _atom_site_symmetry_multiplicity
 _atom_site_fract_x
 _atom_site_fract_y
 _atom_site_fract_z
 _atom_site_occupancy
  Mg  Mg0  1  0.25000000  0.50000000  0.75000000  1
  Cu  Cu1  1  0.03547752  0.34360935  0.12841347  1
  Cu  Cu2  1  0.87158653  0.90706404  0.21519588  1
  Cu  Cu3  1  0.78480412  0.65639065  0.69186817  1
  Cu  Cu4  1  0.50000000  0.00000000  0.50000000  1
  Cu  Cu5  1  0.30813183  0.09293596  0.96452248  1
  Au  Au6  1  0.13579417  0.73702356  0.06967760  1
  Au  Au7  1  0.93032240  0.06611656  0.66734596  1
  Au  Au8  1  0.75835264  0.26004187  0.35737776  1
  Au  Au9  1  0.64262224  0.40097488  0.90266411  1
  Au  Au10  1  0.50168923  0.59902512  0.24164736  1
  Au  Au11  1  0.60122940  0.93388344  0.86420583  1
  Au  Au12  1  0.33265404  0.26297644  0.39877060  1
  Au  Au13  1  0.09733589  0.73995813  0.49831077  1
