# generated using pymatgen
data_SrCo2GeN
_symmetry_space_group_name_H-M   'P 1'
_cell_length_a   3.93770387
_cell_length_b   5.78038368
_cell_length_c   6.87654568
_cell_angle_alpha   90.00000000
_cell_angle_beta   90.00000000
_cell_angle_gamma   109.91399489
_symmetry_Int_Tables_number   1
_chemical_formula_structural   SrCo2GeN
_chemical_formula_sum   'Sr2 Co4 Ge2 N2'
_cell_volume   147.16095191
_cell_formula_units_Z   2
loop_
 _symmetry_equiv_pos_site_id
 _symmetry_equiv_pos_as_xyz
  1  'x, y, z'
loop_
 _atom_site_type_symbol
 _atom_site_label
 _atom_site_symmetry_multiplicity
 _atom_site_fract_x
 _atom_site_fract_y
 _atom_site_fract_z
 _atom_site_occupancy
  Sr  Sr0  1  0.44795256  0.89590512  0.75000000  1
  Sr  Sr1  1  0.55204744  0.10409488  0.25000000  1
  Co  Co2  1  0.15635308  0.31270616  0.94239448  1
  Co  Co3  1  0.84364692  0.68729384  0.05760552  1
  Co  Co4  1  0.15635308  0.31270616  0.55760552  1
  Co  Co5  1  0.84364692  0.68729384  0.44239448  1
  Ge  Ge6  1  0.72675898  0.45351795  0.75000000  1
  Ge  Ge7  1  0.27324102  0.54648205  0.25000000  1
  N  N8  1  0.00000000  0.00000000  0.00000000  1
  N  N9  1  0.00000000  0.00000000  0.50000000  1
