# generated using pymatgen
data_Na2Zn4CuGe3
_symmetry_space_group_name_H-M   'P 1'
_cell_length_a   4.16662422
_cell_length_b   4.16662422
_cell_length_c   10.96796217
_cell_angle_alpha   90.00000000
_cell_angle_beta   90.00000000
_cell_angle_gamma   90.00000000
_symmetry_Int_Tables_number   1
_chemical_formula_structural   Na2Zn4CuGe3
_chemical_formula_sum   'Na2 Zn4 Cu1 Ge3'
_cell_volume   190.41213030
_cell_formula_units_Z   1
loop_
 _symmetry_equiv_pos_site_id
 _symmetry_equiv_pos_as_xyz
  1  'x, y, z'
loop_
 _atom_site_type_symbol
 _atom_site_label
 _atom_site_symmetry_multiplicity
 _atom_site_fract_x
 _atom_site_fract_y
 _atom_site_fract_z
 _atom_site_occupancy
  Na  Na0  1  0.50000000  0.00000000  0.25095505  1
  Na  Na1  1  0.00000000  0.50000000  0.74904495  1
  Zn  Zn2  1  0.50000000  0.50000000  0.00000000  1
  Zn  Zn3  1  0.00000000  0.00000000  0.00000000  1
  Zn  Zn4  1  0.50000000  0.00000000  0.63457410  1
  Zn  Zn5  1  0.00000000  0.50000000  0.36542590  1
  Cu  Cu6  1  0.50000000  0.50000000  0.50000000  1
  Ge  Ge7  1  0.00000000  0.00000000  0.50000000  1
  Ge  Ge8  1  0.50000000  0.00000000  0.86048594  1
  Ge  Ge9  1  0.00000000  0.50000000  0.13951406  1
