# generated using pymatgen
data_Li2CuGe
_symmetry_space_group_name_H-M   'P 1'
_cell_length_a   7.17332629
_cell_length_b   7.17332629
_cell_length_c   5.62277279
_cell_angle_alpha   50.36596553
_cell_angle_beta   50.36596553
_cell_angle_gamma   90.00000000
_symmetry_Int_Tables_number   1
_chemical_formula_structural   Li2CuGe
_chemical_formula_sum   'Li4 Cu2 Ge2'
_cell_volume   124.85274717
_cell_formula_units_Z   2
loop_
 _symmetry_equiv_pos_site_id
 _symmetry_equiv_pos_as_xyz
  1  'x, y, z'
loop_
 _atom_site_type_symbol
 _atom_site_label
 _atom_site_symmetry_multiplicity
 _atom_site_fract_x
 _atom_site_fract_y
 _atom_site_fract_z
 _atom_site_occupancy
  Ge  Ge0  1  0.00000000  0.00000000  0.00000000  1
  Ge  Ge1  1  0.75000000  0.25000000  0.50000000  1
  Cu  Cu2  1  0.50000000  0.50000000  0.00000000  1
  Cu  Cu3  1  0.25000000  0.75000000  0.50000000  1
  Li  Li4  1  0.60751568  0.12500000  0.25000000  1
  Li  Li5  1  0.14248432  0.62500000  0.25000000  1
  Li  Li6  1  0.37500000  0.39248432  0.75000000  1
  Li  Li7  1  0.87500000  0.85751568  0.75000000  1
