# generated using pymatgen
data_TbDy2YPd4
_symmetry_space_group_name_H-M   'P 1'
_cell_length_a   4.95306875
_cell_length_b   4.95306875
_cell_length_c   6.99704659
_cell_angle_alpha   90.00000000
_cell_angle_beta   90.00000000
_cell_angle_gamma   90.00000000
_symmetry_Int_Tables_number   1
_chemical_formula_structural   TbDy2YPd4
_chemical_formula_sum   'Tb1 Dy2 Y1 Pd4'
_cell_volume   171.65777471
_cell_formula_units_Z   1
loop_
 _symmetry_equiv_pos_site_id
 _symmetry_equiv_pos_as_xyz
  1  'x, y, z'
loop_
 _atom_site_type_symbol
 _atom_site_label
 _atom_site_symmetry_multiplicity
 _atom_site_fract_x
 _atom_site_fract_y
 _atom_site_fract_z
 _atom_site_occupancy
  Dy  Dy0  1  0.49999912  0.49999912  0.00000000  1
  Dy  Dy1  1  0.00000000  0.00000000  0.49999953  1
  Pd  Pd2  1  0.49999912  0.00000000  0.24977253  1
  Pd  Pd3  1  0.00000000  0.49999912  0.24977253  1
  Pd  Pd4  1  0.49999912  0.00000000  0.75022796  1
  Pd  Pd5  1  0.00000000  0.49999912  0.75022796  1
  Tb  Tb6  1  0.00000000  0.00000000  0.00000000  1
  Y  Y7  1  0.49999912  0.49999912  0.49999953  1
