# generated using pymatgen
data_Ce3(HgPd)4
_symmetry_space_group_name_H-M   'P 1'
_cell_length_a   4.01217571
_cell_length_b   8.26802894
_cell_length_c   8.87545130
_cell_angle_alpha   117.76076333
_cell_angle_beta   103.06325180
_cell_angle_gamma   90.00000000
_symmetry_Int_Tables_number   1
_chemical_formula_structural   Ce3(HgPd)4
_chemical_formula_sum   'Ce3 Hg4 Pd4'
_cell_volume   251.89301923
_cell_formula_units_Z   1
loop_
 _symmetry_equiv_pos_site_id
 _symmetry_equiv_pos_as_xyz
  1  'x, y, z'
loop_
 _atom_site_type_symbol
 _atom_site_label
 _atom_site_symmetry_multiplicity
 _atom_site_fract_x
 _atom_site_fract_y
 _atom_site_fract_z
 _atom_site_occupancy
  Ce  Ce0  1  0.12261394  0.12261394  0.24522788  1
  Ce  Ce1  1  0.87738606  0.87738606  0.75477212  1
  Ce  Ce2  1  0.00000000  0.50000000  0.00000000  1
  Hg  Hg3  1  0.33455519  0.14291786  0.66911139  1
  Hg  Hg4  1  0.66544481  0.47380547  0.33088861  1
  Hg  Hg5  1  0.66544481  0.85708214  0.33088861  1
  Hg  Hg6  1  0.33455519  0.52619453  0.66911139  1
  Pd  Pd7  1  0.23990406  0.73990406  0.47980812  1
  Pd  Pd8  1  0.76009594  0.26009594  0.52019188  1
  Pd  Pd9  1  0.50000000  0.82642374  0.00000000  1
  Pd  Pd10  1  0.50000000  0.17357626  1.00000000  1
