# generated using pymatgen
data_ScNi3
_symmetry_space_group_name_H-M   'P 1'
_cell_length_a   5.11648914
_cell_length_b   5.11648914
_cell_length_c   4.30939914
_cell_angle_alpha   90.00000000
_cell_angle_beta   90.00000000
_cell_angle_gamma   94.80960607
_symmetry_Int_Tables_number   1
_chemical_formula_structural   ScNi3
_chemical_formula_sum   'Sc2 Ni6'
_cell_volume   112.41620114
_cell_formula_units_Z   2
loop_
 _symmetry_equiv_pos_site_id
 _symmetry_equiv_pos_as_xyz
  1  'x, y, z'
loop_
 _atom_site_type_symbol
 _atom_site_label
 _atom_site_symmetry_multiplicity
 _atom_site_fract_x
 _atom_site_fract_y
 _atom_site_fract_z
 _atom_site_occupancy
  Sc  Sc0  1  0.38831047  0.61168953  0.25000000  1
  Sc  Sc1  1  0.61168953  0.38831047  0.75000000  1
  Ni  Ni2  1  0.92853957  0.07146043  0.75000000  1
  Ni  Ni3  1  0.07146043  0.92853957  0.25000000  1
  Ni  Ni4  1  0.06819985  0.59882198  0.75000000  1
  Ni  Ni5  1  0.93180015  0.40117802  0.25000000  1
  Ni  Ni6  1  0.40117802  0.93180015  0.75000000  1
  Ni  Ni7  1  0.59882198  0.06819985  0.25000000  1
