# generated using pymatgen
data_Rb2Li3PuF12
_symmetry_space_group_name_H-M   'P 1'
_cell_length_a   8.15766433
_cell_length_b   8.15766433
_cell_length_c   8.15766433
_cell_angle_alpha   51.94506020
_cell_angle_beta   51.94506018
_cell_angle_gamma   51.94506018
_symmetry_Int_Tables_number   1
_chemical_formula_structural   Rb2Li3PuF12
_chemical_formula_sum   'Rb2 Li3 Pu1 F12'
_cell_volume   311.16106579
_cell_formula_units_Z   1
loop_
 _symmetry_equiv_pos_site_id
 _symmetry_equiv_pos_as_xyz
  1  'x, y, z'
loop_
 _atom_site_type_symbol
 _atom_site_label
 _atom_site_symmetry_multiplicity
 _atom_site_fract_x
 _atom_site_fract_y
 _atom_site_fract_z
 _atom_site_occupancy
  Rb  Rb0  1  0.58366406  0.58366406  0.58366406  1
  Rb  Rb1  1  0.41633594  0.41633594  0.41633594  1
  Li  Li2  1  0.50000000  0.00000000  -0.00000000  1
  Li  Li3  1  0.00000000  0.50000000  -0.00000000  1
  Li  Li4  1  0.00000000  0.00000000  0.50000000  1
  Pu  Pu5  1  0.00000000  0.00000000  0.00000000  1
  F  F6  1  0.31365370  0.31365370  0.92084029  1
  F  F7  1  0.91478756  0.91478756  0.33018197  1
  F  F8  1  0.33018197  0.91478756  0.91478756  1
  F  F9  1  0.92084029  0.31365370  0.31365370  1
  F  F10  1  0.91478756  0.33018197  0.91478756  1
  F  F11  1  0.31365370  0.92084029  0.31365370  1
  F  F12  1  0.68634630  0.68634630  0.07915971  1
  F  F13  1  0.08521244  0.08521244  0.66981803  1
  F  F14  1  0.66981803  0.08521244  0.08521244  1
  F  F15  1  0.07915971  0.68634630  0.68634630  1
  F  F16  1  0.08521244  0.66981803  0.08521244  1
  F  F17  1  0.68634630  0.07915971  0.68634630  1
