# generated using pymatgen
data_DyErZr
_symmetry_space_group_name_H-M   'P 1'
_cell_length_a   3.39184381
_cell_length_b   3.39184381
_cell_length_c   7.68226069
_cell_angle_alpha   102.75356862
_cell_angle_beta   102.75356862
_cell_angle_gamma   90.00000000
_symmetry_Int_Tables_number   1
_chemical_formula_structural   DyErZr
_chemical_formula_sum   'Dy1 Er1 Zr1'
_cell_volume   83.96377404
_cell_formula_units_Z   1
loop_
 _symmetry_equiv_pos_site_id
 _symmetry_equiv_pos_as_xyz
  1  'x, y, z'
loop_
 _atom_site_type_symbol
 _atom_site_label
 _atom_site_symmetry_multiplicity
 _atom_site_fract_x
 _atom_site_fract_y
 _atom_site_fract_z
 _atom_site_occupancy
  Dy  Dy0  1  0.99017038  0.99017038  0.98034076  1
  Zr  Zr1  1  0.33255436  0.33255436  0.66510873  1
  Er  Er2  1  0.67727526  0.67727526  0.35455052  1
