# generated using pymatgen
data_TaHRh2
_symmetry_space_group_name_H-M   'P 1'
_cell_length_a   2.84348946
_cell_length_b   2.84348946
_cell_length_c   7.12417909
_cell_angle_alpha   78.48841228
_cell_angle_beta   78.48841233
_cell_angle_gamma   60.00000002
_symmetry_Int_Tables_number   1
_chemical_formula_structural   TaHRh2
_chemical_formula_sum   'Ta1 H1 Rh2'
_cell_volume   48.54229046
_cell_formula_units_Z   1
loop_
 _symmetry_equiv_pos_site_id
 _symmetry_equiv_pos_as_xyz
  1  'x, y, z'
loop_
 _atom_site_type_symbol
 _atom_site_label
 _atom_site_symmetry_multiplicity
 _atom_site_fract_x
 _atom_site_fract_y
 _atom_site_fract_z
 _atom_site_occupancy
  H  H0  1  0.00000000  0.00000000  0.00000000  1
  Rh  Rh1  1  0.27459049  0.27459049  0.17622954  1
  Rh  Rh2  1  0.72540951  0.72540951  0.82377046  1
  Ta  Ta3  1  0.50000000  0.50000000  0.50000000  1
