# generated using pymatgen
data_Tb2CuPd
_symmetry_space_group_name_H-M   'P 1'
_cell_length_a   5.54432308
_cell_length_b   4.56396686
_cell_length_c   7.47760278
_cell_angle_alpha   90.00000000
_cell_angle_beta   109.66123468
_cell_angle_gamma   90.00000000
_symmetry_Int_Tables_number   1
_chemical_formula_structural   Tb2CuPd
_chemical_formula_sum   'Tb4 Cu2 Pd2'
_cell_volume   178.18257734
_cell_formula_units_Z   2
loop_
 _symmetry_equiv_pos_site_id
 _symmetry_equiv_pos_as_xyz
  1  'x, y, z'
loop_
 _atom_site_type_symbol
 _atom_site_label
 _atom_site_symmetry_multiplicity
 _atom_site_fract_x
 _atom_site_fract_y
 _atom_site_fract_z
 _atom_site_occupancy
  Cu  Cu0  1  0.84421832  0.75000106  0.20916131  1
  Cu  Cu1  1  0.15578149  0.24999962  0.79083918  1
  Pd  Pd2  1  0.15700574  0.24999962  0.28710614  1
  Pd  Pd3  1  0.84299522  0.75000106  0.71289292  1
  Tb  Tb4  1  0.27831617  0.75000106  0.07002055  1
  Tb  Tb5  1  0.72262133  0.24999962  0.43160928  1
  Tb  Tb6  1  0.27738028  0.75000106  0.56839121  1
  Tb  Tb7  1  0.72168479  0.24999962  0.92997851  1
