# generated using pymatgen
data_LaHo2ScBi4
_symmetry_space_group_name_H-M   'P 1'
_cell_length_a   6.36243027
_cell_length_b   6.36243028
_cell_length_c   7.75012813
_cell_angle_alpha   114.24045627
_cell_angle_beta   114.24045628
_cell_angle_gamma   89.98682470
_symmetry_Int_Tables_number   1
_chemical_formula_structural   LaHo2ScBi4
_chemical_formula_sum   'La1 Ho2 Sc1 Bi4'
_cell_volume   255.44320552
_cell_formula_units_Z   1
loop_
 _symmetry_equiv_pos_site_id
 _symmetry_equiv_pos_as_xyz
  1  'x, y, z'
loop_
 _atom_site_type_symbol
 _atom_site_label
 _atom_site_symmetry_multiplicity
 _atom_site_fract_x
 _atom_site_fract_y
 _atom_site_fract_z
 _atom_site_occupancy
  La  La0  1  0.93727751  0.93727751  0.00000000  1
  Ho  Ho1  1  0.18733576  0.68733576  0.50000000  1
  Ho  Ho2  1  0.68733576  0.18733576  0.50000000  1
  Sc  Sc3  1  0.43671188  0.43671188  1.00000000  1
  Bi  Bi4  1  0.93679500  0.43726373  0.00000000  1
  Bi  Bi5  1  0.43726373  0.93679500  0.00000000  1
  Bi  Bi6  1  0.19768052  0.19768052  0.52075567  1
  Bi  Bi7  1  0.67692484  0.67692484  0.47924433  1
