# generated using pymatgen
data_NdHfPaN4
_symmetry_space_group_name_H-M   'P 1'
_cell_length_a   5.83249948
_cell_length_b   5.88202475
_cell_length_c   6.76053564
_cell_angle_alpha   90.00000000
_cell_angle_beta   115.55413583
_cell_angle_gamma   90.00000000
_symmetry_Int_Tables_number   1
_chemical_formula_structural   NdHfPaN4
_chemical_formula_sum   'Nd2 Hf2 Pa2 N8'
_cell_volume   209.24493298
_cell_formula_units_Z   2
loop_
 _symmetry_equiv_pos_site_id
 _symmetry_equiv_pos_as_xyz
  1  'x, y, z'
loop_
 _atom_site_type_symbol
 _atom_site_label
 _atom_site_symmetry_multiplicity
 _atom_site_fract_x
 _atom_site_fract_y
 _atom_site_fract_z
 _atom_site_occupancy
  Nd  Nd0  1  0.60673699  0.75000000  0.21347398  1
  Nd  Nd1  1  0.39326301  0.25000000  0.78652602  1
  Hf  Hf2  1  0.25578437  0.75000000  0.51156873  1
  Hf  Hf3  1  0.74421563  0.25000000  0.48843127  1
  Pa  Pa4  1  0.11482303  0.25000000  0.22964605  1
  Pa  Pa5  1  0.88517697  0.75000000  0.77035395  1
  N  N6  1  0.94635649  0.25000000  0.89271299  1
  N  N7  1  0.42418113  0.75000000  0.84836227  1
  N  N8  1  0.05364351  0.75000000  0.10728701  1
  N  N9  1  0.57581887  0.25000000  0.15163773  1
  N  N10  1  0.50000000  0.50000000  0.50000000  1
  N  N11  1  0.00000000  0.00000000  0.50000000  1
  N  N12  1  0.50000000  0.00000000  0.50000000  1
  N  N13  1  0.00000000  0.50000000  0.50000000  1
