# generated using pymatgen
data_Np2AgPd
_symmetry_space_group_name_H-M   'P 1'
_cell_length_a   5.59639938
_cell_length_b   5.76364230
_cell_length_c   3.70292863
_cell_angle_alpha   71.24313014
_cell_angle_beta   70.63983571
_cell_angle_gamma   46.46478597
_symmetry_Int_Tables_number   1
_chemical_formula_structural   Np2AgPd
_chemical_formula_sum   'Np2 Ag1 Pd1'
_cell_volume   80.92994017
_cell_formula_units_Z   1
loop_
 _symmetry_equiv_pos_site_id
 _symmetry_equiv_pos_as_xyz
  1  'x, y, z'
loop_
 _atom_site_type_symbol
 _atom_site_label
 _atom_site_symmetry_multiplicity
 _atom_site_fract_x
 _atom_site_fract_y
 _atom_site_fract_z
 _atom_site_occupancy
  Np  Np0  1  0.45851461  0.56613809  0.48754647  1
  Np  Np1  1  0.04154151  0.93378450  0.01245912  1
  Pd  Pd2  1  0.74997702  0.75007453  0.74997247  1
  Ag  Ag3  1  0.24994285  0.25001288  0.25001994  1
