# generated using pymatgen
data_Rb2Sr4Pd
_symmetry_space_group_name_H-M   'P 1'
_cell_length_a   6.14423360
_cell_length_b   6.14423360
_cell_length_c   12.18476350
_cell_angle_alpha   75.39654373
_cell_angle_beta   75.39654373
_cell_angle_gamma   90.00000000
_symmetry_Int_Tables_number   1
_chemical_formula_structural   Rb2Sr4Pd
_chemical_formula_sum   'Rb2 Sr4 Pd1'
_cell_volume   429.75964984
_cell_formula_units_Z   1
loop_
 _symmetry_equiv_pos_site_id
 _symmetry_equiv_pos_as_xyz
  1  'x, y, z'
loop_
 _atom_site_type_symbol
 _atom_site_label
 _atom_site_symmetry_multiplicity
 _atom_site_fract_x
 _atom_site_fract_y
 _atom_site_fract_z
 _atom_site_occupancy
  Sr  Sr0  1  0.87055869  0.87055869  0.25888262  1
  Sr  Sr1  1  0.12944131  0.12944131  0.74111738  1
  Sr  Sr2  1  0.00000000  0.50000000  0.00000000  1
  Sr  Sr3  1  0.50000000  0.00000000  0.00000000  1
  Rb  Rb4  1  0.67138444  0.67138444  0.65723012  1
  Rb  Rb5  1  0.32861556  0.32861556  0.34276988  1
  Pd  Pd6  1  0.00000000  0.00000000  0.00000000  1
