# generated using pymatgen
data_CaLa5Hg3
_symmetry_space_group_name_H-M   'P 1'
_cell_length_a   7.14308476
_cell_length_b   9.57833792
_cell_length_c   9.57869908
_cell_angle_alpha   119.99875276
_cell_angle_beta   90.00000000
_cell_angle_gamma   90.00000000
_symmetry_Int_Tables_number   1
_chemical_formula_structural   CaLa5Hg3
_chemical_formula_sum   'Ca2 La10 Hg6'
_cell_volume   567.56888364
_cell_formula_units_Z   2
loop_
 _symmetry_equiv_pos_site_id
 _symmetry_equiv_pos_as_xyz
  1  'x, y, z'
loop_
 _atom_site_type_symbol
 _atom_site_label
 _atom_site_symmetry_multiplicity
 _atom_site_fract_x
 _atom_site_fract_y
 _atom_site_fract_z
 _atom_site_occupancy
  Ca  Ca0  1  0.00000000  0.00000000  0.00000000  1
  Ca  Ca1  1  0.50000000  0.00000000  0.00000000  1
  La  La2  1  0.00000000  0.66652027  0.33304053  1
  La  La3  1  0.50000000  0.33347973  0.66695947  1
  La  La4  1  0.00000000  0.33347973  0.66695947  1
  La  La5  1  0.50000000  0.66652027  0.33304053  1
  La  La6  1  0.75000000  0.66551115  0.66544804  1
  La  La7  1  0.75000000  0.00006311  0.33455196  1
  La  La8  1  0.75000000  0.33440537  0.00000000  1
  La  La9  1  0.25000000  0.33448885  0.33455196  1
  La  La10  1  0.25000000  0.99993689  0.66544804  1
  La  La11  1  0.25000000  0.66559463  1.00000000  1
  Hg  Hg12  1  0.75000000  0.32852157  0.32847440  1
  Hg  Hg13  1  0.75000000  0.00004717  0.67152560  1
  Hg  Hg14  1  0.75000000  0.67148133  1.00000000  1
  Hg  Hg15  1  0.25000000  0.67147843  0.67152560  1
  Hg  Hg16  1  0.25000000  0.99995283  0.32847440  1
  Hg  Hg17  1  0.25000000  0.32851867  0.00000000  1
