# generated using pymatgen
data_MnNi2Hg
_symmetry_space_group_name_H-M   'P 1'
_cell_length_a   4.77359775
_cell_length_b   4.77359771
_cell_length_c   4.77359773
_cell_angle_alpha   133.64669137
_cell_angle_beta   133.68744152
_cell_angle_gamma   67.60851906
_symmetry_Int_Tables_number   1
_chemical_formula_structural   MnNi2Hg
_chemical_formula_sum   'Mn1 Ni2 Hg1'
_cell_volume   55.95591223
_cell_formula_units_Z   1
loop_
 _symmetry_equiv_pos_site_id
 _symmetry_equiv_pos_as_xyz
  1  'x, y, z'
loop_
 _atom_site_type_symbol
 _atom_site_label
 _atom_site_symmetry_multiplicity
 _atom_site_fract_x
 _atom_site_fract_y
 _atom_site_fract_z
 _atom_site_occupancy
  Hg  Hg0  1  0.49998843  0.49998843  1.00000000  1
  Mn  Mn1  1  0.24999955  0.74999955  0.50000000  1
  Ni  Ni2  1  0.00007859  0.00007859  1.00000000  1
  Ni  Ni3  1  0.74993343  0.24993343  0.50000000  1
