# generated using pymatgen
data_NbF
_symmetry_space_group_name_H-M   'P 1'
_cell_length_a   8.34198000
_cell_length_b   8.34198000
_cell_length_c   2.85126000
_cell_angle_alpha   90.00000000
_cell_angle_beta   90.00000000
_cell_angle_gamma   119.99999999
_symmetry_Int_Tables_number   1
_chemical_formula_structural   NbF
_chemical_formula_sum   'Nb6 F6'
_cell_volume   171.83267137
_cell_formula_units_Z   6
loop_
 _symmetry_equiv_pos_site_id
 _symmetry_equiv_pos_as_xyz
  1  'x, y, z'
loop_
 _atom_site_type_symbol
 _atom_site_label
 _atom_site_symmetry_multiplicity
 _atom_site_fract_x
 _atom_site_fract_y
 _atom_site_fract_z
 _atom_site_occupancy
  Nb  Nb0  1  0.85176000  0.30985000  0.25000000  1
  Nb  Nb1  1  0.54191000  0.85176000  0.75000000  1
  Nb  Nb2  1  0.69015000  0.54191000  0.25000000  1
  Nb  Nb3  1  0.14824000  0.69015000  0.75000000  1
  Nb  Nb4  1  0.45809000  0.14824000  0.25000000  1
  Nb  Nb5  1  0.30985000  0.45809000  0.75000000  1
  F  F6  1  0.76813000  0.01061000  0.25000000  1
  F  F7  1  0.75752000  0.76813000  0.75000000  1
  F  F8  1  0.98939000  0.75752000  0.25000000  1
  F  F9  1  0.23187000  0.98939000  0.75000000  1
  F  F10  1  0.24248000  0.23187000  0.25000000  1
  F  F11  1  0.01061000  0.24248000  0.75000000  1
