# generated using pymatgen
data_Tb2TmPu
_symmetry_space_group_name_H-M   'P 1'
_cell_length_a   3.53259317
_cell_length_b   3.53259317
_cell_length_c   11.48976022
_cell_angle_alpha   81.15858248
_cell_angle_beta   81.15858249
_cell_angle_gamma   59.98312678
_symmetry_Int_Tables_number   1
_chemical_formula_structural   Tb2TmPu
_chemical_formula_sum   'Tb2 Tm1 Pu1'
_cell_volume   122.18175820
_cell_formula_units_Z   1
loop_
 _symmetry_equiv_pos_site_id
 _symmetry_equiv_pos_as_xyz
  1  'x, y, z'
loop_
 _atom_site_type_symbol
 _atom_site_label
 _atom_site_symmetry_multiplicity
 _atom_site_fract_x
 _atom_site_fract_y
 _atom_site_fract_z
 _atom_site_occupancy
  Tb  Tb0  1  0.08291156  0.08291156  0.75120707  1
  Tb  Tb1  1  0.25038833  0.25038833  0.24883606  1
  Tm  Tm2  1  0.50031294  0.50031294  0.49893367  1
  Pu  Pu3  1  0.66638716  0.66638716  0.00102219  1
