# generated using pymatgen
data_Ba3Sb2Pd7
_symmetry_space_group_name_H-M   'P 1'
_cell_length_a   4.43316811
_cell_length_b   4.57756506
_cell_length_c   15.84568877
_cell_angle_alpha   98.18048738
_cell_angle_beta   90.00018802
_cell_angle_gamma   90.00000325
_symmetry_Int_Tables_number   1
_chemical_formula_structural   Ba3Sb2Pd7
_chemical_formula_sum   'Ba3 Sb2 Pd7'
_cell_volume   318.28645368
_cell_formula_units_Z   1
loop_
 _symmetry_equiv_pos_site_id
 _symmetry_equiv_pos_as_xyz
  1  'x, y, z'
loop_
 _atom_site_type_symbol
 _atom_site_label
 _atom_site_symmetry_multiplicity
 _atom_site_fract_x
 _atom_site_fract_y
 _atom_site_fract_z
 _atom_site_occupancy
  Ba  Ba0  1  0.50000000  0.50000000  0.00000000  1
  Ba  Ba1  1  0.50000100  0.69700062  0.39743637  1
  Ba  Ba2  1  0.49999900  0.30299938  0.60256363  1
  Sb  Sb3  1  -0.00000000  0.91704559  0.83610846  1
  Sb  Sb4  1  1.00000000  0.08295441  0.16389154  1
  Pd  Pd5  1  0.00000500  0.37639560  0.75332619  1
  Pd  Pd6  1  0.99999800  0.81953300  0.63660495  1
  Pd  Pd7  1  0.00000000  0.00000000  0.00000000  1
  Pd  Pd8  1  0.99999500  0.62360440  0.24667381  1
  Pd  Pd9  1  0.50000100  0.12431111  0.25105184  1
  Pd  Pd10  1  0.49999900  0.87568889  0.74894816  1
  Pd  Pd11  1  0.00000200  0.18046700  0.36339505  1
