# generated using pymatgen
data_AsSeO4
_symmetry_space_group_name_H-M   'P 1'
_cell_length_a   5.24588238
_cell_length_b   5.20769887
_cell_length_c   7.63560679
_cell_angle_alpha   109.16182494
_cell_angle_beta   109.32022247
_cell_angle_gamma   92.12999027
_symmetry_Int_Tables_number   1
_chemical_formula_structural   AsSeO4
_chemical_formula_sum   'As2 Se2 O8'
_cell_volume   183.44041120
_cell_formula_units_Z   2
loop_
 _symmetry_equiv_pos_site_id
 _symmetry_equiv_pos_as_xyz
  1  'x, y, z'
loop_
 _atom_site_type_symbol
 _atom_site_label
 _atom_site_symmetry_multiplicity
 _atom_site_fract_x
 _atom_site_fract_y
 _atom_site_fract_z
 _atom_site_occupancy
  As  As0  1  0.78967580  0.03967482  0.07935060  1
  As  As1  1  0.21032420  0.96032518  0.92064940  1
  Se  Se2  1  0.45196921  0.70196616  0.40392841  1
  Se  Se3  1  0.54803079  0.29803384  0.59607159  1
  O  O4  1  0.32099420  0.94576146  0.56208842  1
  O  O5  1  0.07590259  0.81987344  0.06442020  1
  O  O6  1  0.25890879  0.38367004  0.43791360  1
  O  O7  1  0.51148138  0.75545325  0.93558078  1
  O  O8  1  0.67900580  0.05423854  0.43791158  1
  O  O9  1  0.74109121  0.61632996  0.56208640  1
  O  O10  1  0.92409741  0.18012656  0.93557980  1
  O  O11  1  0.48851862  0.24454675  0.06441922  1
