# generated using pymatgen
data_YMnPb2
_symmetry_space_group_name_H-M   'P 1'
_cell_length_a   4.64684390
_cell_length_b   3.54069194
_cell_length_c   6.30124833
_cell_angle_alpha   82.59753231
_cell_angle_beta   90.00000000
_cell_angle_gamma   90.00000000
_symmetry_Int_Tables_number   1
_chemical_formula_structural   YMnPb2
_chemical_formula_sum   'Y1 Mn1 Pb2'
_cell_volume   102.81064305
_cell_formula_units_Z   1
loop_
 _symmetry_equiv_pos_site_id
 _symmetry_equiv_pos_as_xyz
  1  'x, y, z'
loop_
 _atom_site_type_symbol
 _atom_site_label
 _atom_site_symmetry_multiplicity
 _atom_site_fract_x
 _atom_site_fract_y
 _atom_site_fract_z
 _atom_site_occupancy
  Mn  Mn0  1  0.50000000  0.75000000  0.75000000  1
  Pb  Pb1  1  0.00000000  0.90013740  0.98764871  1
  Pb  Pb2  1  0.00000000  0.59986260  0.51235129  1
  Y  Y3  1  0.50000000  0.25000000  0.25000000  1
