# generated using pymatgen
data_ZnCuPtAu
_symmetry_space_group_name_H-M   'P 1'
_cell_length_a   3.66202764
_cell_length_b   3.96734172
_cell_length_c   4.05340453
_cell_angle_alpha   90.00000000
_cell_angle_beta   90.00000000
_cell_angle_gamma   90.00000000
_symmetry_Int_Tables_number   1
_chemical_formula_structural   ZnCuPtAu
_chemical_formula_sum   'Zn1 Cu1 Pt1 Au1'
_cell_volume   58.88994870
_cell_formula_units_Z   1
loop_
 _symmetry_equiv_pos_site_id
 _symmetry_equiv_pos_as_xyz
  1  'x, y, z'
loop_
 _atom_site_type_symbol
 _atom_site_label
 _atom_site_symmetry_multiplicity
 _atom_site_fract_x
 _atom_site_fract_y
 _atom_site_fract_z
 _atom_site_occupancy
  Au  Au0  1  0.49999896  0.49999978  0.00000000  1
  Cu  Cu1  1  0.00000000  0.00000000  0.00000000  1
  Pt  Pt2  1  0.49999896  0.00000000  0.49999944  1
  Zn  Zn3  1  0.00000000  0.49999978  0.49999944  1
