# generated using pymatgen
data_ZrSi2C
_symmetry_space_group_name_H-M   'P 1'
_cell_length_a   6.21444586
_cell_length_b   6.21444586
_cell_length_c   5.32102768
_cell_angle_alpha   54.27103611
_cell_angle_beta   54.27103611
_cell_angle_gamma   90.00000000
_symmetry_Int_Tables_number   1
_chemical_formula_structural   ZrSi2C
_chemical_formula_sum   'Zr2 Si4 C2'
_cell_volume   115.88161155
_cell_formula_units_Z   2
loop_
 _symmetry_equiv_pos_site_id
 _symmetry_equiv_pos_as_xyz
  1  'x, y, z'
loop_
 _atom_site_type_symbol
 _atom_site_label
 _atom_site_symmetry_multiplicity
 _atom_site_fract_x
 _atom_site_fract_y
 _atom_site_fract_z
 _atom_site_occupancy
  Si  Si0  1  0.52545778  0.12500000  0.25000000  1
  Si  Si1  1  0.22454222  0.62500000  0.25000000  1
  Si  Si2  1  0.37500000  0.47454222  0.75000000  1
  Si  Si3  1  0.87500000  0.77545778  0.75000000  1
  C  C4  1  0.50000000  0.50000000  0.00000000  1
  C  C5  1  0.25000000  0.75000000  0.50000000  1
  Zr  Zr6  1  0.00000000  0.00000000  0.00000000  1
  Zr  Zr7  1  0.75000000  0.25000000  0.50000000  1
