# generated using pymatgen
data_PaGaPbO5
_symmetry_space_group_name_H-M   'P 1'
_cell_length_a   6.09245000
_cell_length_b   6.09245000
_cell_length_c   8.07293097
_cell_angle_alpha   103.99197827
_cell_angle_beta   103.99197826
_cell_angle_gamma   106.87274954
_symmetry_Int_Tables_number   1
_chemical_formula_structural   PaGaPbO5
_chemical_formula_sum   'Pa2 Ga2 Pb2 O10'
_cell_volume   262.07006849
_cell_formula_units_Z   2
loop_
 _symmetry_equiv_pos_site_id
 _symmetry_equiv_pos_as_xyz
  1  'x, y, z'
loop_
 _atom_site_type_symbol
 _atom_site_label
 _atom_site_symmetry_multiplicity
 _atom_site_fract_x
 _atom_site_fract_y
 _atom_site_fract_z
 _atom_site_occupancy
  Pa  Pa0  1  0.00000000  -0.00000000  0.50000000  1
  Pa  Pa1  1  0.00000000  0.00000000  0.00000000  1
  Ga  Ga2  1  0.68249061  0.31750939  0.25000000  1
  Ga  Ga3  1  0.31750939  0.68249061  0.75000000  1
  Pb  Pb4  1  0.33232839  0.66767161  0.25000000  1
  Pb  Pb5  1  0.66767161  0.33232839  0.75000000  1
  O  O6  1  0.08100575  0.91899425  0.25000000  1
  O  O7  1  0.91899425  0.08100575  0.75000000  1
  O  O8  1  0.89849121  0.31002581  0.11937096  1
  O  O9  1  0.10150879  0.68997419  0.88062904  1
  O  O10  1  0.68997419  0.10150879  0.38062904  1
  O  O11  1  0.31002581  0.89849121  0.61937096  1
  O  O12  1  0.75006791  0.62733539  0.40876298  1
  O  O13  1  0.24993209  0.37266461  0.59123702  1
  O  O14  1  0.37266461  0.24993209  0.09123702  1
  O  O15  1  0.62733539  0.75006791  0.90876298  1
