# generated using pymatgen
data_GdDy(CoC)2
_symmetry_space_group_name_H-M   'P 1'
_cell_length_a   3.62108752
_cell_length_b   3.62108752
_cell_length_c   6.98263362
_cell_angle_alpha   90.00000000
_cell_angle_beta   90.00000000
_cell_angle_gamma   90.00000000
_symmetry_Int_Tables_number   1
_chemical_formula_structural   GdDy(CoC)2
_chemical_formula_sum   'Gd1 Dy1 Co2 C2'
_cell_volume   91.55821107
_cell_formula_units_Z   1
loop_
 _symmetry_equiv_pos_site_id
 _symmetry_equiv_pos_as_xyz
  1  'x, y, z'
loop_
 _atom_site_type_symbol
 _atom_site_label
 _atom_site_symmetry_multiplicity
 _atom_site_fract_x
 _atom_site_fract_y
 _atom_site_fract_z
 _atom_site_occupancy
  C  C0  1  0.00000000  0.49999896  0.25351609  1
  C  C1  1  0.49999896  0.00000000  0.74648482  1
  Co  Co2  1  0.49999896  0.49999896  0.25538931  1
  Co  Co3  1  0.49999896  0.49999896  0.74461160  1
  Dy  Dy4  1  0.00000000  0.00000000  0.50000046  1
  Gd  Gd5  1  0.00000000  0.00000000  0.00000000  1
