# generated using pymatgen
data_LiYbNbO3
_symmetry_space_group_name_H-M   'P 1'
_cell_length_a   4.26863989
_cell_length_b   4.26863989
_cell_length_c   4.26490235
_cell_angle_alpha   80.72364545
_cell_angle_beta   80.72364557
_cell_angle_gamma   80.56263757
_symmetry_Int_Tables_number   1
_chemical_formula_structural   LiYbNbO3
_chemical_formula_sum   'Li1 Yb1 Nb1 O3'
_cell_volume   74.92931529
_cell_formula_units_Z   1
loop_
 _symmetry_equiv_pos_site_id
 _symmetry_equiv_pos_as_xyz
  1  'x, y, z'
loop_
 _atom_site_type_symbol
 _atom_site_label
 _atom_site_symmetry_multiplicity
 _atom_site_fract_x
 _atom_site_fract_y
 _atom_site_fract_z
 _atom_site_occupancy
  Li  Li0  1  0.76419025  0.76419025  0.76661485  1
  Yb  Yb1  1  0.10661379  0.10661379  0.10734257  1
  Nb  Nb2  1  0.47264548  0.47264548  0.47608533  1
  O  O3  1  0.47471509  0.47471509  0.97803107  1
  O  O4  1  0.47386875  0.97463064  0.47762809  1
  O  O5  1  0.97463064  0.47386875  0.47762809  1
