# generated using pymatgen
data_Sc2Ag4Se5
_symmetry_space_group_name_H-M   'P 1'
_cell_length_a   4.06181538
_cell_length_b   4.06181538
_cell_length_c   18.37394212
_cell_angle_alpha   83.65401883
_cell_angle_beta   83.65401883
_cell_angle_gamma   59.99999997
_symmetry_Int_Tables_number   1
_chemical_formula_structural   Sc2Ag4Se5
_chemical_formula_sum   'Sc2 Ag4 Se5'
_cell_volume   260.37958644
_cell_formula_units_Z   1
loop_
 _symmetry_equiv_pos_site_id
 _symmetry_equiv_pos_as_xyz
  1  'x, y, z'
loop_
 _atom_site_type_symbol
 _atom_site_label
 _atom_site_symmetry_multiplicity
 _atom_site_fract_x
 _atom_site_fract_y
 _atom_site_fract_z
 _atom_site_occupancy
  Sc  Sc0  1  0.13817750  0.13817750  0.58546650  1
  Sc  Sc1  1  0.86182250  0.86182250  0.41453350  1
  Ag  Ag2  1  0.68405539  0.68405539  0.94783482  1
  Ag  Ag3  1  0.58355842  0.58355842  0.24932575  1
  Ag  Ag4  1  0.41644158  0.41644158  0.75067425  1
  Ag  Ag5  1  0.31594461  0.31594461  0.05216518  1
  Se  Se6  1  0.77805589  0.77805589  0.66583132  1
  Se  Se7  1  0.63016439  0.63016439  0.10950584  1
  Se  Se8  1  0.50000000  0.50000000  0.50000000  1
  Se  Se9  1  0.36983561  0.36983561  0.89049416  1
  Se  Se10  1  0.22194411  0.22194411  0.33416868  1
