# generated using pymatgen
data_Th2Zn12Cu5
_symmetry_space_group_name_H-M   'P 1'
_cell_length_a   6.74708804
_cell_length_b   6.74708862
_cell_length_c   6.74708824
_cell_angle_alpha   82.92742349
_cell_angle_beta   82.92741943
_cell_angle_gamma   82.92742034
_symmetry_Int_Tables_number   1
_chemical_formula_structural   Th2Zn12Cu5
_chemical_formula_sum   'Th2 Zn12 Cu5'
_cell_volume   300.66939854
_cell_formula_units_Z   1
loop_
 _symmetry_equiv_pos_site_id
 _symmetry_equiv_pos_as_xyz
  1  'x, y, z'
loop_
 _atom_site_type_symbol
 _atom_site_label
 _atom_site_symmetry_multiplicity
 _atom_site_fract_x
 _atom_site_fract_y
 _atom_site_fract_z
 _atom_site_occupancy
  Th  Th0  1  0.66100486  0.66100486  0.66100486  1
  Th  Th1  1  0.33899514  0.33899514  0.33899514  1
  Zn  Zn2  1  0.28646477  0.71353523  1.00000000  1
  Zn  Zn3  1  0.71353523  0.00000000  0.28646477  1
  Zn  Zn4  1  -0.00000000  0.28646477  0.71353523  1
  Zn  Zn5  1  0.71353523  0.28646477  0.00000000  1
  Zn  Zn6  1  0.28646477  1.00000000  0.71353523  1
  Zn  Zn7  1  1.00000000  0.71353523  0.28646477  1
  Zn  Zn8  1  0.34553742  0.34553742  0.85107314  1
  Zn  Zn9  1  0.34553742  0.85107314  0.34553742  1
  Zn  Zn10  1  0.85107314  0.34553742  0.34553742  1
  Zn  Zn11  1  0.65446258  0.14892686  0.65446258  1
  Zn  Zn12  1  0.65446258  0.65446258  0.14892686  1
  Zn  Zn13  1  0.14892686  0.65446258  0.65446258  1
  Cu  Cu14  1  0.00000000  0.00000000  0.50000000  1
  Cu  Cu15  1  0.00000000  0.50000000  -0.00000000  1
  Cu  Cu16  1  0.50000000  0.00000000  0.00000000  1
  Cu  Cu17  1  0.89702497  0.89702497  0.89702497  1
  Cu  Cu18  1  0.10297503  0.10297503  0.10297503  1
