# generated using pymatgen
data_ErIn3Cu8
_symmetry_space_group_name_H-M   'P 1'
_cell_length_a   5.06301913
_cell_length_b   5.06301902
_cell_length_c   8.88764824
_cell_angle_alpha   73.45103851
_cell_angle_beta   73.45103802
_cell_angle_gamma   59.99999319
_symmetry_Int_Tables_number   1
_chemical_formula_structural   ErIn3Cu8
_chemical_formula_sum   'Er1 In3 Cu8'
_cell_volume   186.32733572
_cell_formula_units_Z   1
loop_
 _symmetry_equiv_pos_site_id
 _symmetry_equiv_pos_as_xyz
  1  'x, y, z'
loop_
 _atom_site_type_symbol
 _atom_site_label
 _atom_site_symmetry_multiplicity
 _atom_site_fract_x
 _atom_site_fract_y
 _atom_site_fract_z
 _atom_site_occupancy
  Er  Er0  1  0.87499632  0.87499632  0.37501003  1
  In  In1  1  0.37545620  0.37545620  0.87363040  1
  In  In2  1  0.99964570  0.99964570  0.00106291  1
  In  In3  1  0.49878867  0.49878867  0.50363500  1
  Cu  Cu4  1  0.93916761  0.43810364  0.18462410  1
  Cu  Cu5  1  0.43559558  0.93757554  0.68925233  1
  Cu  Cu6  1  0.43810364  0.43810364  0.18462410  1
  Cu  Cu7  1  0.93757554  0.93757554  0.68925233  1
  Cu  Cu8  1  0.18720692  0.18720692  0.43838025  1
  Cu  Cu9  1  0.68778163  0.68778163  0.93665610  1
  Cu  Cu10  1  0.43810364  0.93916761  0.18462410  1
  Cu  Cu11  1  0.93757554  0.43559558  0.68925233  1
