# generated using pymatgen
data_H6IN2Cl
_symmetry_space_group_name_H-M   'P 1'
_cell_length_a   6.51019109
_cell_length_b   6.51019110
_cell_length_c   8.89976181
_cell_angle_alpha   112.15631574
_cell_angle_beta   112.15631574
_cell_angle_gamma   77.41102499
_symmetry_Int_Tables_number   1
_chemical_formula_structural   H6IN2Cl
_chemical_formula_sum   'H12 I2 N4 Cl2'
_cell_volume   322.28301216
_cell_formula_units_Z   2
loop_
 _symmetry_equiv_pos_site_id
 _symmetry_equiv_pos_as_xyz
  1  'x, y, z'
loop_
 _atom_site_type_symbol
 _atom_site_label
 _atom_site_symmetry_multiplicity
 _atom_site_fract_x
 _atom_site_fract_y
 _atom_site_fract_z
 _atom_site_occupancy
  H  H0  1  0.02933451  0.49454302  0.25162111  1
  H  H1  1  0.50545698  0.97066549  0.24837889  1
  H  H2  1  0.97066549  0.50545698  0.74837889  1
  H  H3  1  0.49454302  0.02933451  0.75162111  1
  H  H4  1  0.28484519  0.46156137  0.24256333  1
  H  H5  1  0.53843863  0.71515481  0.25743667  1
  H  H6  1  0.71515481  0.53843863  0.75743667  1
  H  H7  1  0.46156137  0.28484519  0.74256333  1
  H  H8  1  0.23366932  0.60595683  0.42584680  1
  H  H9  1  0.39404317  0.76633068  0.07415320  1
  H  H10  1  0.76633068  0.39404317  0.57415320  1
  H  H11  1  0.60595683  0.23366932  0.92584680  1
  I  I12  1  0.01999429  0.98000571  0.25000000  1
  I  I13  1  0.98000571  0.01999429  0.75000000  1
  N  N14  1  0.57089521  0.17227167  0.79543694  1
  N  N15  1  0.82772833  0.42910479  0.70456306  1
  N  N16  1  0.42910479  0.82772833  0.20456306  1
  N  N17  1  0.17227167  0.57089521  0.29543694  1
  Cl  Cl18  1  0.70516381  0.29483619  0.25000000  1
  Cl  Cl19  1  0.29483619  0.70516381  0.75000000  1
