# generated using pymatgen
data_Gd2Cu3Ge
_symmetry_space_group_name_H-M   'P 1'
_cell_length_a   5.36465081
_cell_length_b   5.36465081
_cell_length_c   5.36465082
_cell_angle_alpha   59.29516016
_cell_angle_beta   59.29516014
_cell_angle_gamma   59.29516006
_symmetry_Int_Tables_number   1
_chemical_formula_structural   Gd2Cu3Ge
_chemical_formula_sum   'Gd2 Cu3 Ge1'
_cell_volume   107.41935207
_cell_formula_units_Z   1
loop_
 _symmetry_equiv_pos_site_id
 _symmetry_equiv_pos_as_xyz
  1  'x, y, z'
loop_
 _atom_site_type_symbol
 _atom_site_label
 _atom_site_symmetry_multiplicity
 _atom_site_fract_x
 _atom_site_fract_y
 _atom_site_fract_z
 _atom_site_occupancy
  Ge  Ge0  1  0.00000000  0.00000000  0.00000000  1
  Gd  Gd1  1  0.62446761  0.62446761  0.62446761  1
  Gd  Gd2  1  0.37553239  0.37553239  0.37553239  1
  Cu  Cu3  1  -0.00000000  0.00000000  0.50000000  1
  Cu  Cu4  1  0.00000000  0.50000000  0.00000000  1
  Cu  Cu5  1  0.50000000  0.00000000  0.00000000  1
