# generated using pymatgen
data_B2N
_symmetry_space_group_name_H-M   'P 1'
_cell_length_a   7.10968151
_cell_length_b   2.53749182
_cell_length_c   4.45356225
_cell_angle_alpha   90.00000000
_cell_angle_beta   102.28124801
_cell_angle_gamma   90.00000000
_symmetry_Int_Tables_number   1
_chemical_formula_structural   B2N
_chemical_formula_sum   'B8 N4'
_cell_volume   78.50695132
_cell_formula_units_Z   4
loop_
 _symmetry_equiv_pos_site_id
 _symmetry_equiv_pos_as_xyz
  1  'x, y, z'
loop_
 _atom_site_type_symbol
 _atom_site_label
 _atom_site_symmetry_multiplicity
 _atom_site_fract_x
 _atom_site_fract_y
 _atom_site_fract_z
 _atom_site_occupancy
  B  B0  1  0.48174109  0.00000000  0.81369927  1
  B  B1  1  0.48174109  0.50000000  0.31369927  1
  B  B2  1  0.77865249  0.00000000  0.58291076  1
  B  B3  1  0.77865249  0.50000000  0.08291076  1
  B  B4  1  0.32885372  0.00000000  0.43986757  1
  B  B5  1  0.32885372  0.50000000  0.93986757  1
  B  B6  1  0.07875854  0.00000000  0.35258433  1
  B  B7  1  0.07875854  0.50000000  0.85258433  1
  N  N8  1  0.69674722  0.00000000  0.88751593  1
  N  N9  1  0.69674722  0.50000000  0.38751593  1
  N  N10  1  0.99832693  0.00000000  0.65816213  1
  N  N11  1  0.99832693  0.50000000  0.15816213  1
