# generated using pymatgen
data_BaLiCa
_symmetry_space_group_name_H-M   'P 1'
_cell_length_a   6.07861981
_cell_length_b   6.07861981
_cell_length_c   4.13856689
_cell_angle_alpha   90.00000000
_cell_angle_beta   90.00000000
_cell_angle_gamma   119.99999994
_symmetry_Int_Tables_number   1
_chemical_formula_structural   BaLiCa
_chemical_formula_sum   'Ba1 Li1 Ca1'
_cell_volume   132.43127893
_cell_formula_units_Z   1
loop_
 _symmetry_equiv_pos_site_id
 _symmetry_equiv_pos_as_xyz
  1  'x, y, z'
loop_
 _atom_site_type_symbol
 _atom_site_label
 _atom_site_symmetry_multiplicity
 _atom_site_fract_x
 _atom_site_fract_y
 _atom_site_fract_z
 _atom_site_occupancy
  Ba  Ba0  1  0.00000000  0.00000000  0.99810016  1
  Ca  Ca1  1  0.66666667  0.33333333  0.49343532  1
  Li  Li2  1  0.33333333  0.66666667  0.50846452  1
