# generated using pymatgen
data_MnCu3Pd2
_symmetry_space_group_name_H-M   'P 1'
_cell_length_a   4.98273952
_cell_length_b   4.98273952
_cell_length_c   7.80910988
_cell_angle_alpha   100.59666120
_cell_angle_beta   100.59666118
_cell_angle_gamma   115.06148392
_symmetry_Int_Tables_number   1
_chemical_formula_structural   MnCu3Pd2
_chemical_formula_sum   'Mn2 Cu6 Pd4'
_cell_volume   165.00362780
_cell_formula_units_Z   2
loop_
 _symmetry_equiv_pos_site_id
 _symmetry_equiv_pos_as_xyz
  1  'x, y, z'
loop_
 _atom_site_type_symbol
 _atom_site_label
 _atom_site_symmetry_multiplicity
 _atom_site_fract_x
 _atom_site_fract_y
 _atom_site_fract_z
 _atom_site_occupancy
  Mn  Mn0  1  0.66711586  0.66711586  0.33423271  1
  Mn  Mn1  1  0.33288414  0.33288414  0.66576729  1
  Cu  Cu2  1  0.32816079  0.83560057  0.16376136  1
  Cu  Cu3  1  0.16439943  0.67183921  0.83623864  1
  Cu  Cu4  1  0.67183921  0.16439943  0.83623864  1
  Cu  Cu5  1  0.83560057  0.32816079  0.16376136  1
  Cu  Cu6  1  0.16425911  0.16425911  0.32851922  1
  Cu  Cu7  1  0.83574089  0.83574089  0.67148078  1
  Pd  Pd8  1  0.25000000  0.75000000  0.50000000  1
  Pd  Pd9  1  0.74895342  0.74895342  0.00000000  1
  Pd  Pd10  1  0.75000000  0.25000000  0.50000000  1
  Pd  Pd11  1  0.25104658  0.25104658  1.00000000  1
