# generated using pymatgen
data_V2GeN
_symmetry_space_group_name_H-M   'P 1'
_cell_length_a   2.92519581
_cell_length_b   2.98779508
_cell_length_c   6.69684452
_cell_angle_alpha   106.86574792
_cell_angle_beta   90.00000000
_cell_angle_gamma   119.30931128
_symmetry_Int_Tables_number   1
_chemical_formula_structural   V2GeN
_chemical_formula_sum   'V2 Ge1 N1'
_cell_volume   48.12940883
_cell_formula_units_Z   1
loop_
 _symmetry_equiv_pos_site_id
 _symmetry_equiv_pos_as_xyz
  1  'x, y, z'
loop_
 _atom_site_type_symbol
 _atom_site_label
 _atom_site_symmetry_multiplicity
 _atom_site_fract_x
 _atom_site_fract_y
 _atom_site_fract_z
 _atom_site_occupancy
  V  V0  1  0.26170223  0.02340445  0.33499490  1
  V  V1  1  0.73829777  0.97659555  0.66500510  1
  Ge  Ge2  1  0.50000000  0.50000000  0.00000000  1
  N  N3  1  -0.00000000  0.50000000  0.50000000  1
