# generated using pymatgen
data_NaGaAsO4
_symmetry_space_group_name_H-M   'P 1'
_cell_length_a   5.68661850
_cell_length_b   5.68661850
_cell_length_c   6.56967226
_cell_angle_alpha   90.00000000
_cell_angle_beta   90.00000000
_cell_angle_gamma   112.56050017
_symmetry_Int_Tables_number   1
_chemical_formula_structural   NaGaAsO4
_chemical_formula_sum   'Na2 Ga2 As2 O8'
_cell_volume   196.19006103
_cell_formula_units_Z   2
loop_
 _symmetry_equiv_pos_site_id
 _symmetry_equiv_pos_as_xyz
  1  'x, y, z'
loop_
 _atom_site_type_symbol
 _atom_site_label
 _atom_site_symmetry_multiplicity
 _atom_site_fract_x
 _atom_site_fract_y
 _atom_site_fract_z
 _atom_site_occupancy
  Na  Na0  1  0.50000000  0.50000000  0.50000000  1
  Na  Na1  1  0.50000000  0.50000000  0.00000000  1
  Ga  Ga2  1  0.13665577  0.86334423  0.25000000  1
  Ga  Ga3  1  0.86334423  0.13665577  0.75000000  1
  As  As4  1  0.84730858  0.15269142  0.25000000  1
  As  As5  1  0.15269142  0.84730858  0.75000000  1
  O  O6  1  0.22118507  0.18584531  0.75000000  1
  O  O7  1  0.81415469  0.77881493  0.75000000  1
  O  O8  1  0.76233550  0.23766450  0.99311756  1
  O  O9  1  0.76233550  0.23766450  0.50688244  1
  O  O10  1  0.23766450  0.76233550  0.00688244  1
  O  O11  1  0.23766450  0.76233550  0.49311756  1
  O  O12  1  0.77881493  0.81415469  0.25000000  1
  O  O13  1  0.18584531  0.22118507  0.25000000  1
