# generated using pymatgen
data_In(AgAu4)3
_symmetry_space_group_name_H-M   'P 1'
_cell_length_a   4.21300183
_cell_length_b   4.21300183
_cell_length_c   16.40750508
_cell_angle_alpha   90.00000000
_cell_angle_beta   90.00000000
_cell_angle_gamma   90.00000000
_symmetry_Int_Tables_number   1
_chemical_formula_structural   In(AgAu4)3
_chemical_formula_sum   'In1 Ag3 Au12'
_cell_volume   291.22311503
_cell_formula_units_Z   1
loop_
 _symmetry_equiv_pos_site_id
 _symmetry_equiv_pos_as_xyz
  1  'x, y, z'
loop_
 _atom_site_type_symbol
 _atom_site_label
 _atom_site_symmetry_multiplicity
 _atom_site_fract_x
 _atom_site_fract_y
 _atom_site_fract_z
 _atom_site_occupancy
  In  In0  1  0.00000000  0.00000000  0.00000000  1
  Ag  Ag1  1  0.00000000  0.00000000  0.25355778  1
  Ag  Ag2  1  0.00000000  0.00000000  0.50000000  1
  Ag  Ag3  1  0.00000000  0.00000000  0.74644222  1
  Au  Au4  1  0.50000000  0.50000000  0.00000000  1
  Au  Au5  1  0.50000000  0.50000000  0.25279766  1
  Au  Au6  1  0.50000000  0.50000000  0.50000000  1
  Au  Au7  1  0.50000000  0.50000000  0.74720234  1
  Au  Au8  1  0.50000000  0.00000000  0.12827146  1
  Au  Au9  1  0.50000000  0.00000000  0.37660856  1
  Au  Au10  1  0.50000000  0.00000000  0.62339144  1
  Au  Au11  1  0.50000000  0.00000000  0.87172854  1
  Au  Au12  1  0.00000000  0.50000000  0.12827146  1
  Au  Au13  1  0.00000000  0.50000000  0.37660856  1
  Au  Au14  1  0.00000000  0.50000000  0.62339144  1
  Au  Au15  1  0.00000000  0.50000000  0.87172854  1
