# generated using pymatgen
data_Sr3WN4
_symmetry_space_group_name_H-M   'P 1'
_cell_length_a   7.74174851
_cell_length_b   8.50181637
_cell_length_c   8.62814779
_cell_angle_alpha   90.00000000
_cell_angle_beta   90.00001253
_cell_angle_gamma   90.00000000
_symmetry_Int_Tables_number   1
_chemical_formula_structural   Sr3WN4
_chemical_formula_sum   'Sr12 W4 N16'
_cell_volume   567.89540550
_cell_formula_units_Z   4
loop_
 _symmetry_equiv_pos_site_id
 _symmetry_equiv_pos_as_xyz
  1  'x, y, z'
loop_
 _atom_site_type_symbol
 _atom_site_label
 _atom_site_symmetry_multiplicity
 _atom_site_fract_x
 _atom_site_fract_y
 _atom_site_fract_z
 _atom_site_occupancy
  Sr  Sr0  1  0.33183449  0.51958236  0.75000000  1
  Sr  Sr1  1  0.83183449  0.98041764  0.75000000  1
  Sr  Sr2  1  0.66816551  0.48041764  0.25000000  1
  Sr  Sr3  1  0.16816551  0.01958236  0.25000000  1
  Sr  Sr4  1  0.45638783  0.77520919  0.03049721  1
  Sr  Sr5  1  0.95638783  0.72479081  0.46950279  1
  Sr  Sr6  1  0.54361217  0.22479081  0.53049721  1
  Sr  Sr7  1  0.04361217  0.27520919  0.96950279  1
  Sr  Sr8  1  0.54361217  0.22479081  0.96950279  1
  Sr  Sr9  1  0.04361217  0.27520919  0.53049721  1
  Sr  Sr10  1  0.45638783  0.77520919  0.46950279  1
  Sr  Sr11  1  0.95638783  0.72479081  0.03049721  1
  W  W12  1  0.28089190  0.00729610  0.75000000  1
  W  W13  1  0.78089190  0.49270390  0.75000000  1
  W  W14  1  0.71910810  0.99270390  0.25000000  1
  W  W15  1  0.21910810  0.50729610  0.25000000  1
  N  N16  1  0.17037787  0.94404838  0.56605676  1
  N  N17  1  0.67037787  0.55595162  0.93394324  1
  N  N18  1  0.82962213  0.05595162  0.06605676  1
  N  N19  1  0.32962213  0.44404838  0.43394324  1
  N  N20  1  0.82962213  0.05595162  0.43394324  1
  N  N21  1  0.32962213  0.44404838  0.06605676  1
  N  N22  1  0.17037787  0.94404838  0.93394324  1
  N  N23  1  0.67037787  0.55595162  0.56605676  1
  N  N24  1  0.29040098  0.23165226  0.75000000  1
  N  N25  1  0.79040098  0.26834774  0.75000000  1
  N  N26  1  0.70959902  0.76834774  0.25000000  1
  N  N27  1  0.20959902  0.73165226  0.25000000  1
  N  N28  1  0.50949213  0.92924063  0.75000000  1
  N  N29  1  0.00949213  0.57075937  0.75000000  1
  N  N30  1  0.49050787  0.07075937  0.25000000  1
  N  N31  1  0.99050787  0.42924063  0.25000000  1
