# generated using pymatgen
data_K2NaTbI6
_symmetry_space_group_name_H-M   'P 1'
_cell_length_a   8.65563173
_cell_length_b   8.65563173
_cell_length_c   8.65563173
_cell_angle_alpha   60.00000000
_cell_angle_beta   60.00000000
_cell_angle_gamma   60.00000000
_symmetry_Int_Tables_number   1
_chemical_formula_structural   K2NaTbI6
_chemical_formula_sum   'K2 Na1 Tb1 I6'
_cell_volume   458.54431393
_cell_formula_units_Z   1
loop_
 _symmetry_equiv_pos_site_id
 _symmetry_equiv_pos_as_xyz
  1  'x, y, z'
loop_
 _atom_site_type_symbol
 _atom_site_label
 _atom_site_symmetry_multiplicity
 _atom_site_fract_x
 _atom_site_fract_y
 _atom_site_fract_z
 _atom_site_occupancy
  I  I0  1  0.75335238  0.24664829  0.24664829  1
  I  I1  1  0.24664829  0.75335238  0.24664829  1
  I  I2  1  0.75335238  0.75335238  0.24664829  1
  I  I3  1  0.24664829  0.24664829  0.75335238  1
  I  I4  1  0.75335238  0.24664829  0.75335238  1
  I  I5  1  0.24664829  0.75335238  0.75335238  1
  K  K6  1  0.25000017  0.25000017  0.25000017  1
  K  K7  1  0.74999969  0.74999969  0.74999969  1
  Na  Na8  1  0.50000034  0.50000034  0.50000034  1
  Tb  Tb9  1  0.00000000  0.00000000  0.00000000  1
