# generated using pymatgen
data_Ba2Pb3O8
_symmetry_space_group_name_H-M   'P 1'
_cell_length_a   5.79383235
_cell_length_b   6.89037027
_cell_length_c   7.29428447
_cell_angle_alpha   118.18453912
_cell_angle_beta   108.09380484
_cell_angle_gamma   90.00000081
_symmetry_Int_Tables_number   1
_chemical_formula_structural   Ba2Pb3O8
_chemical_formula_sum   'Ba2 Pb3 O8'
_cell_volume   240.21156702
_cell_formula_units_Z   1
loop_
 _symmetry_equiv_pos_site_id
 _symmetry_equiv_pos_as_xyz
  1  'x, y, z'
loop_
 _atom_site_type_symbol
 _atom_site_label
 _atom_site_symmetry_multiplicity
 _atom_site_fract_x
 _atom_site_fract_y
 _atom_site_fract_z
 _atom_site_occupancy
  Ba  Ba0  1  0.66553450  0.71749379  0.43498658  1
  Ba  Ba1  1  0.33446550  0.28250621  0.56501342  1
  Pb  Pb2  1  0.50000000  0.00000000  -0.00000000  1
  Pb  Pb3  1  1.00000000  0.26001656  1.00000000  1
  Pb  Pb4  1  0.00000000  0.73998344  -0.00000000  1
  O  O5  1  0.02458873  0.39144945  0.78289889  1
  O  O6  1  0.97541127  0.60855055  0.21710111  1
  O  O7  1  0.09209877  0.90347637  0.80695274  1
  O  O8  1  0.90790123  0.09652363  0.19304726  1
  O  O9  1  0.39160876  0.88513628  0.20277612  1
  O  O10  1  0.39160876  0.31763884  0.20277612  1
  O  O11  1  0.60839124  0.68236116  0.79722388  1
  O  O12  1  0.60839124  0.11486372  0.79722388  1
