# generated using pymatgen
data_DyYIr2(CN)2
_symmetry_space_group_name_H-M   'P 1'
_cell_length_a   3.72928403
_cell_length_b   3.72928403
_cell_length_c   7.30667630
_cell_angle_alpha   90.00000000
_cell_angle_beta   90.00000000
_cell_angle_gamma   90.00000000
_symmetry_Int_Tables_number   1
_chemical_formula_structural   DyYIr2(CN)2
_chemical_formula_sum   'Dy1 Y1 Ir2 C2 N2'
_cell_volume   101.61803450
_cell_formula_units_Z   1
loop_
 _symmetry_equiv_pos_site_id
 _symmetry_equiv_pos_as_xyz
  1  'x, y, z'
loop_
 _atom_site_type_symbol
 _atom_site_label
 _atom_site_symmetry_multiplicity
 _atom_site_fract_x
 _atom_site_fract_y
 _atom_site_fract_z
 _atom_site_occupancy
  C  C0  1  0.49999946  0.49999946  0.33995211  1
  C  C1  1  0.00000000  0.00000000  0.66023179  1
  Dy  Dy2  1  0.00000000  0.00000000  0.16690900  1
  Ir  Ir3  1  0.49999946  0.00000000  0.49974159  1
  Ir  Ir4  1  0.00000000  0.49999946  0.49974159  1
  N  N5  1  0.49999946  0.49999946  0.14934971  1
  N  N6  1  0.00000000  0.00000000  0.85074112  1
  Y  Y7  1  0.49999946  0.49999946  0.83333239  1
