# generated using pymatgen
data_KTaAg2F8
_symmetry_space_group_name_H-M   'P 1'
_cell_length_a   4.92955036
_cell_length_b   4.92955036
_cell_length_c   9.78429437
_cell_angle_alpha   75.40935283
_cell_angle_beta   75.40935282
_cell_angle_gamma   59.99999999
_symmetry_Int_Tables_number   1
_chemical_formula_structural   KTaAg2F8
_chemical_formula_sum   'K1 Ta1 Ag2 F8'
_cell_volume   197.00500277
_cell_formula_units_Z   1
loop_
 _symmetry_equiv_pos_site_id
 _symmetry_equiv_pos_as_xyz
  1  'x, y, z'
loop_
 _atom_site_type_symbol
 _atom_site_label
 _atom_site_symmetry_multiplicity
 _atom_site_fract_x
 _atom_site_fract_y
 _atom_site_fract_z
 _atom_site_occupancy
  K  K0  1  0.00000000  0.00000000  0.00000000  1
  Ta  Ta1  1  0.50000000  0.50000000  0.50000000  1
  Ag  Ag2  1  0.72521528  0.72521528  0.82435515  1
  Ag  Ag3  1  0.27478472  0.27478472  0.17564485  1
  F  F4  1  0.64713710  0.64713710  0.05858970  1
  F  F5  1  0.35286290  0.35286290  0.94141030  1
  F  F6  1  0.53831879  0.24189109  0.36963227  1
  F  F7  1  0.75810891  0.46168121  0.63036773  1
  F  F8  1  0.14984314  0.75810891  0.63036773  1
  F  F9  1  0.24189109  0.85015686  0.36963227  1
  F  F10  1  0.85015686  0.53831879  0.36963227  1
  F  F11  1  0.46168121  0.14984314  0.63036773  1
