# generated using pymatgen
data_AcHo2Zn
_symmetry_space_group_name_H-M   'P 1'
_cell_length_a   3.59515471
_cell_length_b   3.59515471
_cell_length_c   11.63841081
_cell_angle_alpha   81.11497692
_cell_angle_beta   81.11497692
_cell_angle_gamma   59.99999994
_symmetry_Int_Tables_number   1
_chemical_formula_structural   AcHo2Zn
_chemical_formula_sum   'Ac1 Ho2 Zn1'
_cell_volume   128.18593896
_cell_formula_units_Z   1
loop_
 _symmetry_equiv_pos_site_id
 _symmetry_equiv_pos_as_xyz
  1  'x, y, z'
loop_
 _atom_site_type_symbol
 _atom_site_label
 _atom_site_symmetry_multiplicity
 _atom_site_fract_x
 _atom_site_fract_y
 _atom_site_fract_z
 _atom_site_occupancy
  Zn  Zn0  1  0.50000000  0.50000000  0.50000000  1
  Ac  Ac1  1  0.00000000  0.00000000  0.00000000  1
  Ho  Ho2  1  0.10459138  0.10459138  0.68622685  1
  Ho  Ho3  1  0.89540862  0.89540862  0.31377315  1
