# generated using pymatgen
data_Ho2Er3In
_symmetry_space_group_name_H-M   'P 1'
_cell_length_a   4.83303903
_cell_length_b   4.82867884
_cell_length_c   7.83836484
_cell_angle_alpha   107.93969592
_cell_angle_beta   90.00000000
_cell_angle_gamma   90.00000000
_symmetry_Int_Tables_number   1
_chemical_formula_structural   Ho2Er3In
_chemical_formula_sum   'Ho2 Er3 In1'
_cell_volume   174.03182575
_cell_formula_units_Z   1
loop_
 _symmetry_equiv_pos_site_id
 _symmetry_equiv_pos_as_xyz
  1  'x, y, z'
loop_
 _atom_site_type_symbol
 _atom_site_label
 _atom_site_symmetry_multiplicity
 _atom_site_fract_x
 _atom_site_fract_y
 _atom_site_fract_z
 _atom_site_occupancy
  Ho  Ho0  1  0.00000000  0.66205441  0.32410981  1
  Ho  Ho1  1  0.00000000  0.33794559  0.67589019  1
  Er  Er2  1  0.50000000  0.16828773  0.33657547  1
  Er  Er3  1  0.50000000  0.50000000  0.00000000  1
  Er  Er4  1  0.50000000  0.83171227  0.66342453  1
  In  In5  1  0.00000000  0.00000000  0.00000000  1
