# generated using pymatgen
data_Er3CuTe5
_symmetry_space_group_name_H-M   'P 1'
_cell_length_a   8.66055174
_cell_length_b   8.66055174
_cell_length_c   4.05571254
_cell_angle_alpha   90.00000000
_cell_angle_beta   90.00000000
_cell_angle_gamma   120.00000000
_symmetry_Int_Tables_number   1
_chemical_formula_structural   Er3CuTe5
_chemical_formula_sum   'Er3 Cu1 Te5'
_cell_volume   263.44436764
_cell_formula_units_Z   1
loop_
 _symmetry_equiv_pos_site_id
 _symmetry_equiv_pos_as_xyz
  1  'x, y, z'
loop_
 _atom_site_type_symbol
 _atom_site_label
 _atom_site_symmetry_multiplicity
 _atom_site_fract_x
 _atom_site_fract_y
 _atom_site_fract_z
 _atom_site_occupancy
  Cu  Cu0  1  0.00000000  0.00000000  0.00000000  1
  Er  Er1  1  0.27696965  0.00000000  0.50000092  1
  Er  Er2  1  0.00000000  0.27696915  0.50000092  1
  Er  Er3  1  0.72302998  0.72302981  0.50000092  1
  Te  Te4  1  0.71204932  0.00000000  0.00000000  1
  Te  Te5  1  0.28795087  0.28795010  0.00000000  1
  Te  Te6  1  0.00000000  0.71204886  0.00000000  1
  Te  Te7  1  0.66666741  0.33333387  0.50000092  1
  Te  Te8  1  0.33333321  0.66666642  0.50000092  1
