# generated using pymatgen
data_V(CdTe)2
_symmetry_space_group_name_H-M   'P 1'
_cell_length_a   4.20151759
_cell_length_b   4.20151759
_cell_length_c   8.73264088
_cell_angle_alpha   76.08017108
_cell_angle_beta   76.08017108
_cell_angle_gamma   90.00000000
_symmetry_Int_Tables_number   1
_chemical_formula_structural   V(CdTe)2
_chemical_formula_sum   'V1 Cd2 Te2'
_cell_volume   144.95975935
_cell_formula_units_Z   1
loop_
 _symmetry_equiv_pos_site_id
 _symmetry_equiv_pos_as_xyz
  1  'x, y, z'
loop_
 _atom_site_type_symbol
 _atom_site_label
 _atom_site_symmetry_multiplicity
 _atom_site_fract_x
 _atom_site_fract_y
 _atom_site_fract_z
 _atom_site_occupancy
  Cd  Cd0  1  0.41382616  0.41382616  0.17234768  1
  Cd  Cd1  1  0.58617384  0.58617384  0.82765232  1
  Te  Te2  1  0.75000000  0.25000000  0.50000000  1
  Te  Te3  1  0.25000000  0.75000000  0.50000000  1
  V  V4  1  0.00000000  0.00000000  0.00000000  1
