# generated using pymatgen
data_Pr6Ho12Al
_symmetry_space_group_name_H-M   'P 1'
_cell_length_a   8.48750323
_cell_length_b   8.48750323
_cell_length_c   8.48750323
_cell_angle_alpha   89.26419223
_cell_angle_beta   89.26419221
_cell_angle_gamma   89.26419224
_symmetry_Int_Tables_number   1
_chemical_formula_structural   Pr6Ho12Al
_chemical_formula_sum   'Pr6 Ho12 Al1'
_cell_volume   611.27033338
_cell_formula_units_Z   1
loop_
 _symmetry_equiv_pos_site_id
 _symmetry_equiv_pos_as_xyz
  1  'x, y, z'
loop_
 _atom_site_type_symbol
 _atom_site_label
 _atom_site_symmetry_multiplicity
 _atom_site_fract_x
 _atom_site_fract_y
 _atom_site_fract_z
 _atom_site_occupancy
  Pr  Pr0  1  0.74046045  0.90894257  0.30152048  1
  Pr  Pr1  1  0.69847952  0.25953955  0.09105743  1
  Pr  Pr2  1  0.09105743  0.69847952  0.25953955  1
  Pr  Pr3  1  0.25953955  0.09105743  0.69847952  1
  Pr  Pr4  1  0.30152048  0.74046045  0.90894257  1
  Pr  Pr5  1  0.90894257  0.30152048  0.74046045  1
  Ho  Ho6  1  0.77855312  0.53660962  0.43832930  1
  Ho  Ho7  1  0.43832930  0.77855312  0.53660962  1
  Ho  Ho8  1  0.53660962  0.43832930  0.77855312  1
  Ho  Ho9  1  0.22144688  0.46339038  0.56167070  1
  Ho  Ho10  1  0.56167070  0.22144688  0.46339038  1
  Ho  Ho11  1  0.46339038  0.56167070  0.22144688  1
  Ho  Ho12  1  0.01613457  0.18475950  0.35616120  1
  Ho  Ho13  1  0.81524050  0.64383880  0.98386543  1
  Ho  Ho14  1  0.64383880  0.98386543  0.81524050  1
  Ho  Ho15  1  0.98386543  0.81524050  0.64383880  1
  Ho  Ho16  1  0.18475950  0.35616120  0.01613457  1
  Ho  Ho17  1  0.35616120  0.01613457  0.18475950  1
  Al  Al18  1  0.00000000  0.00000000  0.00000000  1
