# generated using pymatgen
data_NaBS2
_symmetry_space_group_name_H-M   'P 1'
_cell_length_a   7.75802924
_cell_length_b   7.75802924
_cell_length_c   7.75802924
_cell_angle_alpha   23.86922773
_cell_angle_beta   23.86922771
_cell_angle_gamma   23.86922771
_symmetry_Int_Tables_number   1
_chemical_formula_structural   NaBS2
_chemical_formula_sum   'Na1 B1 S2'
_cell_volume   67.17034902
_cell_formula_units_Z   1
loop_
 _symmetry_equiv_pos_site_id
 _symmetry_equiv_pos_as_xyz
  1  'x, y, z'
loop_
 _atom_site_type_symbol
 _atom_site_label
 _atom_site_symmetry_multiplicity
 _atom_site_fract_x
 _atom_site_fract_y
 _atom_site_fract_z
 _atom_site_occupancy
  Na  Na0  1  0.00000000  0.00000000  0.00000000  1
  S  S1  1  0.88444213  0.88444213  0.88444213  1
  S  S2  1  0.11555787  0.11555787  0.11555787  1
  B  B3  1  0.50000000  0.50000000  0.50000000  1
