# generated using pymatgen
data_LiGd2Th
_symmetry_space_group_name_H-M   'P 1'
_cell_length_a   3.51977598
_cell_length_b   3.51977598
_cell_length_c   12.20158442
_cell_angle_alpha   81.70705355
_cell_angle_beta   81.70705352
_cell_angle_gamma   60.00000005
_symmetry_Int_Tables_number   1
_chemical_formula_structural   LiGd2Th
_chemical_formula_sum   'Li1 Gd2 Th1'
_cell_volume   129.08285043
_cell_formula_units_Z   1
loop_
 _symmetry_equiv_pos_site_id
 _symmetry_equiv_pos_as_xyz
  1  'x, y, z'
loop_
 _atom_site_type_symbol
 _atom_site_label
 _atom_site_symmetry_multiplicity
 _atom_site_fract_x
 _atom_site_fract_y
 _atom_site_fract_z
 _atom_site_occupancy
  Gd  Gd0  1  0.08943590  0.08943590  0.73169331  1
  Gd  Gd1  1  0.91056410  0.91056410  0.26830669  1
  Th  Th2  1  0.50000000  0.50000000  0.50000000  1
  Li  Li3  1  0.00000000  0.00000000  0.00000000  1
