# generated using pymatgen
data_HoScCo10
_symmetry_space_group_name_H-M   'P 1'
_cell_length_a   3.96307916
_cell_length_b   4.83205123
_cell_length_c   8.38929760
_cell_angle_alpha   90.00000000
_cell_angle_beta   90.00000000
_cell_angle_gamma   90.00000000
_symmetry_Int_Tables_number   1
_chemical_formula_structural   HoScCo10
_chemical_formula_sum   'Ho1 Sc1 Co10'
_cell_volume   160.65338401
_cell_formula_units_Z   1
loop_
 _symmetry_equiv_pos_site_id
 _symmetry_equiv_pos_as_xyz
  1  'x, y, z'
loop_
 _atom_site_type_symbol
 _atom_site_label
 _atom_site_symmetry_multiplicity
 _atom_site_fract_x
 _atom_site_fract_y
 _atom_site_fract_z
 _atom_site_occupancy
  Ho  Ho0  1  0.00000000  0.00000000  0.00000000  1
  Sc  Sc1  1  0.00000000  0.50000000  0.50000000  1
  Co  Co2  1  0.00000000  0.00000000  0.34158100  1
  Co  Co3  1  0.00000000  0.50000000  0.81917329  1
  Co  Co4  1  0.00000000  0.50000000  0.18082671  1
  Co  Co5  1  0.00000000  0.00000000  0.65841900  1
  Co  Co6  1  0.50000000  0.00000000  0.50000000  1
  Co  Co7  1  0.50000000  0.50000000  0.00000000  1
  Co  Co8  1  0.50000000  0.25050443  0.25250141  1
  Co  Co9  1  0.50000000  0.74949557  0.74749859  1
  Co  Co10  1  0.50000000  0.74949557  0.25250141  1
  Co  Co11  1  0.50000000  0.25050443  0.74749859  1
