# generated using pymatgen
data_LiFe2C
_symmetry_space_group_name_H-M   'P 1'
_cell_length_a   6.26214273
_cell_length_b   6.26214273
_cell_length_c   4.89497007
_cell_angle_alpha   50.23421695
_cell_angle_beta   50.23421695
_cell_angle_gamma   90.00000000
_symmetry_Int_Tables_number   1
_chemical_formula_structural   LiFe2C
_chemical_formula_sum   'Li2 Fe4 C2'
_cell_volume   81.82123068
_cell_formula_units_Z   2
loop_
 _symmetry_equiv_pos_site_id
 _symmetry_equiv_pos_as_xyz
  1  'x, y, z'
loop_
 _atom_site_type_symbol
 _atom_site_label
 _atom_site_symmetry_multiplicity
 _atom_site_fract_x
 _atom_site_fract_y
 _atom_site_fract_z
 _atom_site_occupancy
  C  C0  1  0.00000000  0.00000000  0.00000000  1
  C  C1  1  0.75000000  0.25000000  0.50000000  1
  Fe  Fe2  1  0.73116160  0.12500000  0.25000000  1
  Fe  Fe3  1  0.01883840  0.62500000  0.25000000  1
  Fe  Fe4  1  0.37500000  0.26883840  0.75000000  1
  Fe  Fe5  1  0.87500000  0.98116160  0.75000000  1
  Li  Li6  1  0.50000000  0.50000000  0.00000000  1
  Li  Li7  1  0.25000000  0.75000000  0.50000000  1
