# generated using pymatgen
data_Ca2Hf2Ru
_symmetry_space_group_name_H-M   'P 1'
_cell_length_a   6.68843688
_cell_length_b   6.68843688
_cell_length_c   5.37427552
_cell_angle_alpha   90.00000000
_cell_angle_beta   90.00000000
_cell_angle_gamma   90.00000000
_symmetry_Int_Tables_number   1
_chemical_formula_structural   Ca2Hf2Ru
_chemical_formula_sum   'Ca4 Hf4 Ru2'
_cell_volume   240.41922520
_cell_formula_units_Z   2
loop_
 _symmetry_equiv_pos_site_id
 _symmetry_equiv_pos_as_xyz
  1  'x, y, z'
loop_
 _atom_site_type_symbol
 _atom_site_label
 _atom_site_symmetry_multiplicity
 _atom_site_fract_x
 _atom_site_fract_y
 _atom_site_fract_z
 _atom_site_occupancy
  Ru  Ru0  1  0.00000000  0.00000000  0.00000000  1
  Ru  Ru1  1  0.50000000  0.50000000  0.00000000  1
  Ca  Ca2  1  0.35173246  0.85173246  0.00000000  1
  Ca  Ca3  1  0.85173246  0.64826754  0.00000000  1
  Ca  Ca4  1  0.64826754  0.14826754  0.00000000  1
  Ca  Ca5  1  0.14826754  0.35173246  0.00000000  1
  Hf  Hf6  1  0.17246613  0.67246613  0.50000000  1
  Hf  Hf7  1  0.67246613  0.82753387  0.50000000  1
  Hf  Hf8  1  0.82753387  0.32753387  0.50000000  1
  Hf  Hf9  1  0.32753387  0.17246613  0.50000000  1
