# generated using pymatgen
data_La6CeNd2Sm
_symmetry_space_group_name_H-M   'P 1'
_cell_length_a   9.17542212
_cell_length_b   7.07654580
_cell_length_c   6.78586258
_cell_angle_alpha   121.42743615
_cell_angle_beta   104.16594077
_cell_angle_gamma   90.00000000
_symmetry_Int_Tables_number   1
_chemical_formula_structural   La6CeNd2Sm
_chemical_formula_sum   'La6 Ce1 Nd2 Sm1'
_cell_volume   360.17644938
_cell_formula_units_Z   1
loop_
 _symmetry_equiv_pos_site_id
 _symmetry_equiv_pos_as_xyz
  1  'x, y, z'
loop_
 _atom_site_type_symbol
 _atom_site_label
 _atom_site_symmetry_multiplicity
 _atom_site_fract_x
 _atom_site_fract_y
 _atom_site_fract_z
 _atom_site_occupancy
  La  La0  1  0.41369314  0.62393405  0.24786710  1
  La  La1  1  0.19885914  0.04582591  0.62396762  1
  La  La2  1  0.80114086  0.42185829  0.37603238  1
  La  La3  1  0.19885914  0.57814171  0.62396762  1
  La  La4  1  0.80114086  0.95417409  0.37603238  1
  La  La5  1  0.58630686  0.37606595  0.75213290  1
  Ce  Ce6  1  0.00000000  0.50000000  0.00000000  1
  Nd  Nd7  1  0.16933188  0.08332120  0.16664140  1
  Nd  Nd8  1  0.83066812  0.91667880  0.83335860  1
  Sm  Sm9  1  0.50000000  0.00000000  0.00000000  1
