# generated using pymatgen
data_FeB4As
_symmetry_space_group_name_H-M   'P 1'
_cell_length_a   4.57198074
_cell_length_b   4.57198074
_cell_length_c   4.57198074
_cell_angle_alpha   141.63722839
_cell_angle_beta   108.99414573
_cell_angle_gamma   83.70956190
_symmetry_Int_Tables_number   1
_chemical_formula_structural   FeB4As
_chemical_formula_sum   'Fe1 B4 As1'
_cell_volume   54.32938763
_cell_formula_units_Z   1
loop_
 _symmetry_equiv_pos_site_id
 _symmetry_equiv_pos_as_xyz
  1  'x, y, z'
loop_
 _atom_site_type_symbol
 _atom_site_label
 _atom_site_symmetry_multiplicity
 _atom_site_fract_x
 _atom_site_fract_y
 _atom_site_fract_z
 _atom_site_occupancy
  As  As0  1  0.00000000  0.00000000  0.00000000  1
  B  B1  1  0.57952531  0.24467265  0.33485266  1
  B  B2  1  0.09018103  0.75532810  0.33485348  1
  B  B3  1  0.90982079  0.24467265  0.66514814  1
  B  B4  1  0.42047463  0.75532810  0.66514707  1
  Fe  Fe5  1  0.50000048  0.50000048  0.00000000  1
