# generated using pymatgen
data_Tb2Pm2ErMg
_symmetry_space_group_name_H-M   'P 1'
_cell_length_a   7.03407460
_cell_length_b   6.18550683
_cell_length_c   11.12050619
_cell_angle_alpha   123.09001758
_cell_angle_beta   108.43725412
_cell_angle_gamma   90.00000000
_symmetry_Int_Tables_number   1
_chemical_formula_structural   Tb2Pm2ErMg
_chemical_formula_sum   'Tb4 Pm4 Er2 Mg2'
_cell_volume   375.38061370
_cell_formula_units_Z   2
loop_
 _symmetry_equiv_pos_site_id
 _symmetry_equiv_pos_as_xyz
  1  'x, y, z'
loop_
 _atom_site_type_symbol
 _atom_site_label
 _atom_site_symmetry_multiplicity
 _atom_site_fract_x
 _atom_site_fract_y
 _atom_site_fract_z
 _atom_site_occupancy
  Tb  Tb0  1  0.28875100  0.24385301  0.32938872  1
  Tb  Tb1  1  0.71124900  0.75614699  0.67061128  1
  Tb  Tb2  1  0.95936228  0.25614699  0.67061128  1
  Tb  Tb3  1  0.04063772  0.74385301  0.32938872  1
  Pm  Pm4  1  0.79225733  0.25266174  0.33363591  1
  Pm  Pm5  1  0.54137858  0.75266174  0.33363591  1
  Pm  Pm6  1  0.45862142  0.24733826  0.66636409  1
  Pm  Pm7  1  0.20774267  0.74733826  0.66636409  1
  Er  Er8  1  0.86915560  0.75000000  1.00000000  1
  Er  Er9  1  0.13084440  0.25000000  0.00000000  1
  Mg  Mg10  1  0.36800917  0.75000000  1.00000000  1
  Mg  Mg11  1  0.63199083  0.25000000  0.00000000  1
