# generated using pymatgen
data_Re4HgAs
_symmetry_space_group_name_H-M   'P 1'
_cell_length_a   5.28861705
_cell_length_b   5.28861705
_cell_length_c   5.28861705
_cell_angle_alpha   60.00000000
_cell_angle_beta   60.00000000
_cell_angle_gamma   60.00000000
_symmetry_Int_Tables_number   1
_chemical_formula_structural   Re4HgAs
_chemical_formula_sum   'Re4 Hg1 As1'
_cell_volume   104.59510611
_cell_formula_units_Z   1
loop_
 _symmetry_equiv_pos_site_id
 _symmetry_equiv_pos_as_xyz
  1  'x, y, z'
loop_
 _atom_site_type_symbol
 _atom_site_label
 _atom_site_symmetry_multiplicity
 _atom_site_fract_x
 _atom_site_fract_y
 _atom_site_fract_z
 _atom_site_occupancy
  Re  Re0  1  0.87434809  0.37521730  0.37521730  1
  Re  Re1  1  0.37521730  0.37521730  0.87434809  1
  Re  Re2  1  0.37521730  0.87434809  0.37521730  1
  Re  Re3  1  0.37521730  0.37521730  0.37521730  1
  Hg  Hg4  1  0.00000000  0.00000000  0.00000000  1
  As  As5  1  0.75000000  0.75000000  0.75000000  1
