# generated using pymatgen
data_MgZrB4
_symmetry_space_group_name_H-M   'P 1'
_cell_length_a   4.74217774
_cell_length_b   4.74217774
_cell_length_c   4.74217774
_cell_angle_alpha   141.43802037
_cell_angle_beta   110.97290640
_cell_angle_gamma   81.96021206
_symmetry_Int_Tables_number   1
_chemical_formula_structural   MgZrB4
_chemical_formula_sum   'Mg1 Zr1 B4'
_cell_volume   60.25047232
_cell_formula_units_Z   1
loop_
 _symmetry_equiv_pos_site_id
 _symmetry_equiv_pos_as_xyz
  1  'x, y, z'
loop_
 _atom_site_type_symbol
 _atom_site_label
 _atom_site_symmetry_multiplicity
 _atom_site_fract_x
 _atom_site_fract_y
 _atom_site_fract_z
 _atom_site_occupancy
  B  B0  1  0.58433490  0.25315310  0.33118180  1
  B  B1  1  0.07802968  0.74684638  0.33118143  1
  B  B2  1  0.92197204  0.25315310  0.66881894  1
  B  B3  1  0.41566496  0.74684638  0.66881671  1
  Mg  Mg4  1  0.50000042  0.50000042  0.00000000  1
  Zr  Zr5  1  0.00000000  0.00000000  0.00000000  1
