# generated using pymatgen
data_Na3Ge5S12
_symmetry_space_group_name_H-M   'P 1'
_cell_length_a   13.07837217
_cell_length_b   13.07837217
_cell_length_c   13.07837217
_cell_angle_alpha   109.47122061
_cell_angle_beta   109.47122064
_cell_angle_gamma   109.47122064
_symmetry_Int_Tables_number   1
_chemical_formula_structural   Na3Ge5S12
_chemical_formula_sum   'Na12 Ge20 S48'
_cell_volume   1722.02393994
_cell_formula_units_Z   4
loop_
 _symmetry_equiv_pos_site_id
 _symmetry_equiv_pos_as_xyz
  1  'x, y, z'
loop_
 _atom_site_type_symbol
 _atom_site_label
 _atom_site_symmetry_multiplicity
 _atom_site_fract_x
 _atom_site_fract_y
 _atom_site_fract_z
 _atom_site_occupancy
  Na  Na0  1  0.75000000  0.37500000  0.12500000  1
  Na  Na1  1  0.87500000  0.75000000  0.12500000  1
  Na  Na2  1  0.37500000  0.75000000  0.62500000  1
  Na  Na3  1  0.25000000  0.12500000  0.37500000  1
  Na  Na4  1  0.87500000  0.12500000  0.25000000  1
  Na  Na5  1  0.37500000  0.62500000  0.25000000  1
  Na  Na6  1  0.62500000  0.37500000  0.75000000  1
  Na  Na7  1  0.12500000  0.87500000  0.75000000  1
  Na  Na8  1  0.75000000  0.87500000  0.62500000  1
  Na  Na9  1  0.62500000  0.25000000  0.37500000  1
  Na  Na10  1  0.12500000  0.25000000  0.87500000  1
  Na  Na11  1  0.25000000  0.62500000  0.87500000  1
  Ge  Ge12  1  0.12500000  0.37500000  0.25000000  1
  Ge  Ge13  1  0.00000000  0.50000000  0.00000000  1
  Ge  Ge14  1  0.00000000  0.00000000  0.00000000  1
  Ge  Ge15  1  0.37500000  0.25000000  0.12500000  1
  Ge  Ge16  1  0.50000000  0.00000000  0.50000000  1
  Ge  Ge17  1  0.50000000  0.50000000  0.00000000  1
  Ge  Ge18  1  0.12500000  0.75000000  0.37500000  1
  Ge  Ge19  1  0.75000000  0.12500000  0.87500000  1
  Ge  Ge20  1  0.75000000  0.62500000  0.37500000  1
  Ge  Ge21  1  0.37500000  0.12500000  0.75000000  1
  Ge  Ge22  1  0.62500000  0.87500000  0.25000000  1
  Ge  Ge23  1  0.50000000  0.50000000  0.50000000  1
  Ge  Ge24  1  0.50000000  0.00000000  0.00000000  1
  Ge  Ge25  1  0.00000000  0.00000000  0.50000000  1
  Ge  Ge26  1  0.25000000  0.37500000  0.62500000  1
  Ge  Ge27  1  0.25000000  0.87500000  0.12500000  1
  Ge  Ge28  1  0.00000000  0.50000000  0.50000000  1
  Ge  Ge29  1  0.87500000  0.25000000  0.62500000  1
  Ge  Ge30  1  0.62500000  0.75000000  0.87500000  1
  Ge  Ge31  1  0.87500000  0.62500000  0.75000000  1
  S  S32  1  0.70633240  0.11904698  0.02774923  1
  S  S33  1  0.32141683  0.52774923  0.40870225  1
  S  S34  1  0.97225077  0.38095302  0.29366760  1
  S  S35  1  0.52774923  0.20633240  0.11904698  1
  S  S36  1  0.58728542  0.70633240  0.67858317  1
  S  S37  1  0.97225077  0.59129775  0.17858317  1
  S  S38  1  0.32141683  0.79366760  0.41271458  1
  S  S39  1  0.09129775  0.91271458  0.11904698  1
  S  S40  1  0.59129775  0.97225077  0.67858317  1
  S  S41  1  0.70633240  0.58728542  0.17858317  1
  S  S42  1  0.79366760  0.47225077  0.38095302  1
  S  S43  1  0.82141683  0.90870225  0.02774923  1
  S  S44  1  0.11904698  0.70633240  0.52774923  1
  S  S45  1  0.38095302  0.40870225  0.08728542  1
  S  S46  1  0.08728542  0.90870225  0.38095302  1
  S  S47  1  0.41271458  0.11904698  0.59129775  1
  S  S48  1  0.08728542  0.17858317  0.20633240  1
  S  S49  1  0.47225077  0.67858317  0.09129775  1
  S  S50  1  0.82141683  0.91271458  0.29366760  1
  S  S51  1  0.11904698  0.41271458  0.09129775  1
  S  S52  1  0.38095302  0.97225077  0.79366760  1
  S  S53  1  0.59129775  0.61904698  0.41271458  1
  S  S54  1  0.90870225  0.82141683  0.52774923  1
  S  S55  1  0.79366760  0.32141683  0.91271458  1
  S  S56  1  0.40870225  0.38095302  0.58728542  1
  S  S57  1  0.09129775  0.17858317  0.47225077  1
  S  S58  1  0.20633240  0.67858317  0.08728542  1
  S  S59  1  0.17858317  0.08728542  0.70633240  1
  S  S60  1  0.61904698  0.02774923  0.20633240  1
  S  S61  1  0.88095302  0.58728542  0.90870225  1
  S  S62  1  0.52774923  0.32141683  0.90870225  1
  S  S63  1  0.58728542  0.88095302  0.40870225  1
  S  S64  1  0.91271458  0.82141683  0.79366760  1
  S  S65  1  0.91271458  0.09129775  0.61904698  1
  S  S66  1  0.88095302  0.29366760  0.47225077  1
  S  S67  1  0.17858317  0.09129775  0.97225077  1
  S  S68  1  0.61904698  0.59129775  0.91271458  1
  S  S69  1  0.40870225  0.02774923  0.32141683  1
  S  S70  1  0.29366760  0.41271458  0.82141683  1
  S  S71  1  0.20633240  0.52774923  0.61904698  1
  S  S72  1  0.90870225  0.08728542  0.88095302  1
  S  S73  1  0.67858317  0.20633240  0.58728542  1
  S  S74  1  0.47225077  0.79366760  0.88095302  1
  S  S75  1  0.02774923  0.40870225  0.82141683  1
  S  S76  1  0.41271458  0.29366760  0.32141683  1
  S  S77  1  0.02774923  0.61904698  0.70633240  1
  S  S78  1  0.67858317  0.47225077  0.59129775  1
  S  S79  1  0.29366760  0.88095302  0.97225077  1
