# generated using pymatgen
data_La8RuAu2C
_symmetry_space_group_name_H-M   'P 1'
_cell_length_a   7.34758104
_cell_length_b   6.91229091
_cell_length_c   7.80528032
_cell_angle_alpha   73.51370718
_cell_angle_beta   104.97061298
_cell_angle_gamma   87.65655819
_symmetry_Int_Tables_number   1
_chemical_formula_structural   La8RuAu2C
_chemical_formula_sum   'La8 Ru1 Au2 C1'
_cell_volume   364.41863660
_cell_formula_units_Z   1
loop_
 _symmetry_equiv_pos_site_id
 _symmetry_equiv_pos_as_xyz
  1  'x, y, z'
loop_
 _atom_site_type_symbol
 _atom_site_label
 _atom_site_symmetry_multiplicity
 _atom_site_fract_x
 _atom_site_fract_y
 _atom_site_fract_z
 _atom_site_occupancy
  La  La0  1  0.14910548  0.74469008  0.33656311  1
  La  La1  1  0.69232503  0.82065531  0.96715795  1
  La  La2  1  0.84406637  0.25386184  0.13751860  1
  La  La3  1  0.85089452  0.25530992  0.66343689  1
  La  La4  1  0.30767497  0.17934469  0.03284205  1
  La  La5  1  0.15593363  0.74613816  0.86248140  1
  La  La6  1  0.66336764  0.80799323  0.46304771  1
  La  La7  1  0.33663236  0.19200677  0.53695229  1
  Ru  Ru8  1  -0.00000000  0.00000000  0.50000000  1
  Au  Au9  1  0.49995594  0.49555076  0.76038382  1
  Au  Au10  1  0.50004406  0.50444924  0.23961618  1
  C  C11  1  0.00000000  0.00000000  0.00000000  1
