# generated using pymatgen
data_Pm2Be4CuIr3
_symmetry_space_group_name_H-M   'P 1'
_cell_length_a   3.95889889
_cell_length_b   3.95889889
_cell_length_c   9.69793111
_cell_angle_alpha   90.00000000
_cell_angle_beta   90.00000000
_cell_angle_gamma   90.00000000
_symmetry_Int_Tables_number   1
_chemical_formula_structural   Pm2Be4CuIr3
_chemical_formula_sum   'Pm2 Be4 Cu1 Ir3'
_cell_volume   151.99451462
_cell_formula_units_Z   1
loop_
 _symmetry_equiv_pos_site_id
 _symmetry_equiv_pos_as_xyz
  1  'x, y, z'
loop_
 _atom_site_type_symbol
 _atom_site_label
 _atom_site_symmetry_multiplicity
 _atom_site_fract_x
 _atom_site_fract_y
 _atom_site_fract_z
 _atom_site_occupancy
  Pm  Pm0  1  0.50000000  0.00000000  0.24707089  1
  Pm  Pm1  1  0.00000000  0.50000000  0.75292911  1
  Be  Be2  1  0.50000000  0.50000000  0.00000000  1
  Be  Be3  1  0.00000000  0.00000000  0.00000000  1
  Be  Be4  1  0.50000000  0.00000000  0.62502917  1
  Be  Be5  1  0.00000000  0.50000000  0.37497083  1
  Cu  Cu6  1  0.50000000  0.50000000  0.50000000  1
  Ir  Ir7  1  0.00000000  0.00000000  0.50000000  1
  Ir  Ir8  1  0.50000000  0.00000000  0.87410345  1
  Ir  Ir9  1  0.00000000  0.50000000  0.12589655  1
