# generated using pymatgen
data_Ga(OF)2
_symmetry_space_group_name_H-M   'P 1'
_cell_length_a   2.70198906
_cell_length_b   2.70198906
_cell_length_c   8.41499818
_cell_angle_alpha   80.76140898
_cell_angle_beta   80.76140898
_cell_angle_gamma   90.00000000
_symmetry_Int_Tables_number   1
_chemical_formula_structural   Ga(OF)2
_chemical_formula_sum   'Ga1 O2 F2'
_cell_volume   59.83129559
_cell_formula_units_Z   1
loop_
 _symmetry_equiv_pos_site_id
 _symmetry_equiv_pos_as_xyz
  1  'x, y, z'
loop_
 _atom_site_type_symbol
 _atom_site_label
 _atom_site_symmetry_multiplicity
 _atom_site_fract_x
 _atom_site_fract_y
 _atom_site_fract_z
 _atom_site_occupancy
  O  O0  1  0.75000000  0.25000000  0.50000000  1
  O  O1  1  0.25000000  0.75000000  0.50000000  1
  Ga  Ga2  1  0.00000000  0.00000000  0.00000000  1
  F  F3  1  0.42731779  0.42731779  0.14536442  1
  F  F4  1  0.57268221  0.57268221  0.85463558  1
