# generated using pymatgen
data_Sm2Gd2B3
_symmetry_space_group_name_H-M   'P 1'
_cell_length_a   10.64004610
_cell_length_b   10.64004610
_cell_length_c   5.07878896
_cell_angle_alpha   90.00000000
_cell_angle_beta   90.00000000
_cell_angle_gamma   161.56114765
_symmetry_Int_Tables_number   1
_chemical_formula_structural   Sm2Gd2B3
_chemical_formula_sum   'Sm2 Gd2 B3'
_cell_volume   181.85947812
_cell_formula_units_Z   1
loop_
 _symmetry_equiv_pos_site_id
 _symmetry_equiv_pos_as_xyz
  1  'x, y, z'
loop_
 _atom_site_type_symbol
 _atom_site_label
 _atom_site_symmetry_multiplicity
 _atom_site_fract_x
 _atom_site_fract_y
 _atom_site_fract_z
 _atom_site_occupancy
  B  B0  1  0.00000000  0.00000000  0.49999912  1
  B  B1  1  0.74200127  0.25799626  0.49999912  1
  B  B2  1  0.25799626  0.74200127  0.49999912  1
  Gd  Gd3  1  0.68749666  0.31250087  0.00000000  1
  Gd  Gd4  1  0.31250087  0.68749666  0.00000000  1
  Sm  Sm5  1  0.87461464  0.12538288  0.49999912  1
  Sm  Sm6  1  0.12538288  0.87461464  0.49999912  1
