# generated using pymatgen
data_DyAs2Rh
_symmetry_space_group_name_H-M   'P 1'
_cell_length_a   4.79874989
_cell_length_b   4.05396034
_cell_length_c   8.38121680
_cell_angle_alpha   103.98204211
_cell_angle_beta   90.00000000
_cell_angle_gamma   90.00000000
_symmetry_Int_Tables_number   1
_chemical_formula_structural   DyAs2Rh
_chemical_formula_sum   'Dy2 As4 Rh2'
_cell_volume   158.21684472
_cell_formula_units_Z   2
loop_
 _symmetry_equiv_pos_site_id
 _symmetry_equiv_pos_as_xyz
  1  'x, y, z'
loop_
 _atom_site_type_symbol
 _atom_site_label
 _atom_site_symmetry_multiplicity
 _atom_site_fract_x
 _atom_site_fract_y
 _atom_site_fract_z
 _atom_site_occupancy
  As  As0  1  0.25000000  0.97099897  0.93972172  1
  As  As1  1  0.75000000  0.02900103  0.06027828  1
  As  As2  1  0.75000000  0.76263876  0.52610422  1
  As  As3  1  0.25000000  0.23736124  0.47389578  1
  Rh  Rh4  1  0.75000000  0.17861782  0.35811482  1
  Rh  Rh5  1  0.25000000  0.82138218  0.64188518  1
  Dy  Dy6  1  0.25000000  0.60529665  0.21020758  1
  Dy  Dy7  1  0.75000000  0.39470335  0.78979242  1
