# generated using pymatgen
data_Li3V3O5F3
_symmetry_space_group_name_H-M   'P 1'
_cell_length_a   5.86642285
_cell_length_b   5.96455981
_cell_length_c   5.96455612
_cell_angle_alpha   119.07688289
_cell_angle_beta   119.35270840
_cell_angle_gamma   60.64723194
_symmetry_Int_Tables_number   1
_chemical_formula_structural   Li3V3O5F3
_chemical_formula_sum   'Li3 V3 O5 F3'
_cell_volume   150.03498135
_cell_formula_units_Z   1
loop_
 _symmetry_equiv_pos_site_id
 _symmetry_equiv_pos_as_xyz
  1  'x, y, z'
loop_
 _atom_site_type_symbol
 _atom_site_label
 _atom_site_symmetry_multiplicity
 _atom_site_fract_x
 _atom_site_fract_y
 _atom_site_fract_z
 _atom_site_occupancy
  Li  Li0  1  0.73076974  0.75414850  0.24585179  1
  Li  Li1  1  0.87431832  0.37895351  0.62104671  1
  Li  Li2  1  0.37621532  0.37388771  0.62610983  1
  V  V3  1  0.38161845  0.38511434  0.12319405  1
  V  V4  1  0.38161869  0.87680587  0.61488583  1
  V  V5  1  0.01069845  0.99500362  0.00499613  1
  O  O6  1  0.60457777  0.61590620  0.38409251  1
  O  O7  1  0.14832086  0.12005857  0.87994189  1
  O  O8  1  0.62421525  0.12351282  0.87648682  1
  O  O9  1  0.13540405  0.10285526  0.37575504  1
  O  O10  1  0.13540399  0.62424464  0.89714419  1
  F  F11  1  0.13817684  0.61890458  0.38109670  1
  F  F12  1  0.60434688  0.15137134  0.37119001  1
  F  F13  1  0.60434740  0.62881104  0.84862950  1
