# generated using pymatgen
data_PaBOs
_symmetry_space_group_name_H-M   'P 1'
_cell_length_a   4.05515707
_cell_length_b   3.75365305
_cell_length_c   3.75365304
_cell_angle_alpha   120.00000000
_cell_angle_beta   90.00000000
_cell_angle_gamma   90.00000000
_symmetry_Int_Tables_number   1
_chemical_formula_structural   PaBOs
_chemical_formula_sum   'Pa1 B1 Os1'
_cell_volume   49.48192285
_cell_formula_units_Z   1
loop_
 _symmetry_equiv_pos_site_id
 _symmetry_equiv_pos_as_xyz
  1  'x, y, z'
loop_
 _atom_site_type_symbol
 _atom_site_label
 _atom_site_symmetry_multiplicity
 _atom_site_fract_x
 _atom_site_fract_y
 _atom_site_fract_z
 _atom_site_occupancy
  B  B0  1  0.83353058  0.00000000  0.00000000  1
  Pa  Pa1  1  0.33332228  0.33333333  0.66666667  1
  Os  Os2  1  0.83314714  0.66666667  0.33333333  1
