# generated using pymatgen
data_Nd2LuI
_symmetry_space_group_name_H-M   'P 1'
_cell_length_a   3.69302180
_cell_length_b   3.69302180
_cell_length_c   9.60818260
_cell_angle_alpha   90.00000000
_cell_angle_beta   90.00000000
_cell_angle_gamma   90.00000000
_symmetry_Int_Tables_number   1
_chemical_formula_structural   Nd2LuI
_chemical_formula_sum   'Nd2 Lu1 I1'
_cell_volume   131.04033380
_cell_formula_units_Z   1
loop_
 _symmetry_equiv_pos_site_id
 _symmetry_equiv_pos_as_xyz
  1  'x, y, z'
loop_
 _atom_site_type_symbol
 _atom_site_label
 _atom_site_symmetry_multiplicity
 _atom_site_fract_x
 _atom_site_fract_y
 _atom_site_fract_z
 _atom_site_occupancy
  I  I0  1  0.50000000  0.50000000  0.50000000  1
  Lu  Lu1  1  0.50000000  0.50000000  0.00000000  1
  Nd  Nd2  1  0.00000000  0.00000000  0.74427940  1
  Nd  Nd3  1  0.00000000  0.00000000  0.25572060  1
