# generated using pymatgen
data_Li6TlSi
_symmetry_space_group_name_H-M   'P 1'
_cell_length_a   6.83779991
_cell_length_b   7.24897694
_cell_length_c   5.12650959
_cell_angle_alpha   45.13658147
_cell_angle_beta   48.32277787
_cell_angle_gamma   62.30177501
_symmetry_Int_Tables_number   1
_chemical_formula_structural   Li6TlSi
_chemical_formula_sum   'Li6 Tl1 Si1'
_cell_volume   134.51871390
_cell_formula_units_Z   1
loop_
 _symmetry_equiv_pos_site_id
 _symmetry_equiv_pos_as_xyz
  1  'x, y, z'
loop_
 _atom_site_type_symbol
 _atom_site_label
 _atom_site_symmetry_multiplicity
 _atom_site_fract_x
 _atom_site_fract_y
 _atom_site_fract_z
 _atom_site_occupancy
  Li  Li0  1  0.97452498  0.49828372  0.76255918  1
  Li  Li1  1  0.76368383  0.00203898  0.72416603  1
  Li  Li2  1  0.49927563  0.23680416  0.26347612  1
  Li  Li3  1  0.23631617  0.99796102  0.27583397  1
  Li  Li4  1  0.02547502  0.50171628  0.23744082  1
  Li  Li5  1  0.50072437  0.76319584  0.73652388  1
  Tl  Tl6  1  0.50000000  0.50000000  0.50000000  1
  Si  Si7  1  0.00000000  0.00000000  0.00000000  1
