# generated using pymatgen
data_Ba2TlBr
_symmetry_space_group_name_H-M   'P 1'
_cell_length_a   8.08103851
_cell_length_b   8.08103850
_cell_length_c   8.08103850
_cell_angle_alpha   145.00360477
_cell_angle_beta   145.00360479
_cell_angle_gamma   50.32912011
_symmetry_Int_Tables_number   1
_chemical_formula_structural   Ba2TlBr
_chemical_formula_sum   'Ba2 Tl1 Br1'
_cell_volume   172.72306883
_cell_formula_units_Z   1
loop_
 _symmetry_equiv_pos_site_id
 _symmetry_equiv_pos_as_xyz
  1  'x, y, z'
loop_
 _atom_site_type_symbol
 _atom_site_label
 _atom_site_symmetry_multiplicity
 _atom_site_fract_x
 _atom_site_fract_y
 _atom_site_fract_z
 _atom_site_occupancy
  Tl  Tl0  1  0.75000000  0.25000000  0.50000000  1
  Ba  Ba1  1  0.00000000  0.00000000  0.00000000  1
  Ba  Ba2  1  0.25000000  0.75000000  0.50000000  1
  Br  Br3  1  0.50000000  0.50000000  -0.00000000  1
