# generated using pymatgen
data_HoCdH
_symmetry_space_group_name_H-M   'P 1'
_cell_length_a   5.25854311
_cell_length_b   9.78335493
_cell_length_c   9.78335492
_cell_angle_alpha   109.77948649
_cell_angle_beta   88.75510575
_cell_angle_gamma   88.75510578
_symmetry_Int_Tables_number   1
_chemical_formula_structural   HoCdH
_chemical_formula_sum   'Ho8 Cd8 H8'
_cell_volume   473.28368536
_cell_formula_units_Z   8
loop_
 _symmetry_equiv_pos_site_id
 _symmetry_equiv_pos_as_xyz
  1  'x, y, z'
loop_
 _atom_site_type_symbol
 _atom_site_label
 _atom_site_symmetry_multiplicity
 _atom_site_fract_x
 _atom_site_fract_y
 _atom_site_fract_z
 _atom_site_occupancy
  H  H0  1  0.66307363  0.78995276  0.78995276  1
  H  H1  1  0.79730687  0.54384302  0.01932502  1
  H  H2  1  0.79730687  0.01932502  0.54384302  1
  H  H3  1  0.90258266  0.59847818  0.35781869  1
  H  H4  1  0.90258266  0.35781869  0.59847818  1
  H  H5  1  0.27720150  0.31391577  0.16700773  1
  H  H6  1  0.27720150  0.16700773  0.31391577  1
  H  H7  1  0.94708547  0.93211318  0.93211318  1
  Ho  Ho8  1  0.12471042  0.10289057  0.10289057  1
  Ho  Ho9  1  0.73861229  0.38225707  0.80853553  1
  Ho  Ho10  1  0.73861229  0.80853553  0.38225707  1
  Ho  Ho11  1  0.78410414  0.60756037  0.60756037  1
  Ho  Ho12  1  0.75718465  0.75559681  0.98559167  1
  Ho  Ho13  1  0.09952194  0.49639564  0.14093136  1
  Ho  Ho14  1  0.09952194  0.14093136  0.49639564  1
  Ho  Ho15  1  0.75718465  0.98559167  0.75559681  1
  Cd  Cd16  1  0.79201036  0.33639916  0.33639916  1
  Cd  Cd17  1  0.62238704  0.04426129  0.24783851  1
  Cd  Cd18  1  0.62238704  0.24783851  0.04426129  1
  Cd  Cd19  1  0.25694505  0.81126487  0.57700754  1
  Cd  Cd20  1  0.25694505  0.57700754  0.81126487  1
  Cd  Cd21  1  0.23797451  0.20342473  0.81913398  1
  Cd  Cd22  1  0.23797451  0.81913398  0.20342473  1
  Cd  Cd23  1  0.30958200  0.45846057  0.45846057  1
