# generated using pymatgen
data_CsZnGePSe
_symmetry_space_group_name_H-M   'P 1'
_cell_length_a   3.83742312
_cell_length_b   5.53228252
_cell_length_c   7.70546683
_cell_angle_alpha   102.12696358
_cell_angle_beta   104.39130474
_cell_angle_gamma   90.11865832
_symmetry_Int_Tables_number   1
_chemical_formula_structural   CsZnGePSe
_chemical_formula_sum   'Cs1 Zn1 Ge1 P1 Se1'
_cell_volume   154.66101627
_cell_formula_units_Z   1
loop_
 _symmetry_equiv_pos_site_id
 _symmetry_equiv_pos_as_xyz
  1  'x, y, z'
loop_
 _atom_site_type_symbol
 _atom_site_label
 _atom_site_symmetry_multiplicity
 _atom_site_fract_x
 _atom_site_fract_y
 _atom_site_fract_z
 _atom_site_occupancy
  Cs  Cs0  1  0.53391219  0.29081135  0.82695178  1
  Zn  Zn1  1  0.32454521  0.52948651  0.41241074  1
  Ge  Ge2  1  0.72231132  0.88254047  0.21097533  1
  P  P3  1  0.22522698  0.15195489  0.21485981  1
  Se  Se4  1  0.89805429  0.76774678  0.55835235  1
