# generated using pymatgen
data_LiLa2Ni9
_symmetry_space_group_name_H-M   'P 1'
_cell_length_a   4.97981475
_cell_length_b   4.97981475
_cell_length_c   8.68632745
_cell_angle_alpha   73.34269319
_cell_angle_beta   73.34269320
_cell_angle_gamma   59.99999995
_symmetry_Int_Tables_number   1
_chemical_formula_structural   LiLa2Ni9
_chemical_formula_sum   'Li1 La2 Ni9'
_cell_volume   176.03406620
_cell_formula_units_Z   1
loop_
 _symmetry_equiv_pos_site_id
 _symmetry_equiv_pos_as_xyz
  1  'x, y, z'
loop_
 _atom_site_type_symbol
 _atom_site_label
 _atom_site_symmetry_multiplicity
 _atom_site_fract_x
 _atom_site_fract_y
 _atom_site_fract_z
 _atom_site_occupancy
  Li  Li0  1  0.00000000  0.00000000  0.00000000  1
  La  La1  1  0.86715117  0.86715117  0.39854550  1
  La  La2  1  0.13284883  0.13284883  0.60145450  1
  Ni  Ni3  1  0.66737887  0.66737887  0.99786439  1
  Ni  Ni4  1  0.33262113  0.33262113  0.00213561  1
  Ni  Ni5  1  0.50000000  0.50000000  0.50000000  1
  Ni  Ni6  1  0.42113174  0.42113174  0.23713060  1
  Ni  Ni7  1  0.92060693  0.42113174  0.23713060  1
  Ni  Ni8  1  0.42113174  0.92060693  0.23713060  1
  Ni  Ni9  1  0.57886826  0.57886826  0.76286940  1
  Ni  Ni10  1  0.57886826  0.07939307  0.76286940  1
  Ni  Ni11  1  0.07939307  0.57886826  0.76286940  1
