# generated using pymatgen
data_KInIr2
_symmetry_space_group_name_H-M   'P 1'
_cell_length_a   10.49919775
_cell_length_b   10.49919775
_cell_length_c   10.49919775
_cell_angle_alpha   16.20804929
_cell_angle_beta   16.20804929
_cell_angle_gamma   16.20804929
_symmetry_Int_Tables_number   1
_chemical_formula_structural   KInIr2
_chemical_formula_sum   'K1 In1 Ir2'
_cell_volume   78.61144585
_cell_formula_units_Z   1
loop_
 _symmetry_equiv_pos_site_id
 _symmetry_equiv_pos_as_xyz
  1  'x, y, z'
loop_
 _atom_site_type_symbol
 _atom_site_label
 _atom_site_symmetry_multiplicity
 _atom_site_fract_x
 _atom_site_fract_y
 _atom_site_fract_z
 _atom_site_occupancy
  In  In0  1  0.26343645  0.26343645  0.26343645  1
  Ir  Ir1  1  0.00452312  0.00452312  0.00452312  1
  Ir  Ir2  1  0.73750567  0.73750567  0.73750567  1
  K  K3  1  0.49453476  0.49453476  0.49453476  1
