# generated using pymatgen
data_HfAgGe2
_symmetry_space_group_name_H-M   'P 1'
_cell_length_a   4.76050137
_cell_length_b   4.76050137
_cell_length_c   4.76050137
_cell_angle_alpha   60.00000000
_cell_angle_beta   60.00000000
_cell_angle_gamma   60.00000000
_symmetry_Int_Tables_number   1
_chemical_formula_structural   HfAgGe2
_chemical_formula_sum   'Hf1 Ag1 Ge2'
_cell_volume   76.28569109
_cell_formula_units_Z   1
loop_
 _symmetry_equiv_pos_site_id
 _symmetry_equiv_pos_as_xyz
  1  'x, y, z'
loop_
 _atom_site_type_symbol
 _atom_site_label
 _atom_site_symmetry_multiplicity
 _atom_site_fract_x
 _atom_site_fract_y
 _atom_site_fract_z
 _atom_site_occupancy
  Ag  Ag0  1  0.74999938  0.74999938  0.74999938  1
  Ge  Ge1  1  0.00000000  0.00000000  0.00000000  1
  Ge  Ge2  1  0.24999979  0.24999979  0.24999979  1
  Hf  Hf3  1  0.49999958  0.49999958  0.49999958  1
