# generated using pymatgen
data_CrReRu3
_symmetry_space_group_name_H-M   'P 1'
_cell_length_a   4.63014509
_cell_length_b   4.63014509
_cell_length_c   4.63014509
_cell_angle_alpha   90.00000000
_cell_angle_beta   90.00000000
_cell_angle_gamma   90.00000000
_symmetry_Int_Tables_number   1
_chemical_formula_structural   CrReRu3
_chemical_formula_sum   'Cr1 Re1 Ru3'
_cell_volume   99.26217813
_cell_formula_units_Z   1
loop_
 _symmetry_equiv_pos_site_id
 _symmetry_equiv_pos_as_xyz
  1  'x, y, z'
loop_
 _atom_site_type_symbol
 _atom_site_label
 _atom_site_symmetry_multiplicity
 _atom_site_fract_x
 _atom_site_fract_y
 _atom_site_fract_z
 _atom_site_occupancy
  Re  Re0  1  0.00000000  0.00000000  0.00000000  1
  Cr  Cr1  1  0.50000000  0.50000000  0.50000000  1
  Ru  Ru2  1  0.00000000  0.50000000  0.00000000  1
  Ru  Ru3  1  0.00000000  0.00000000  0.50000000  1
  Ru  Ru4  1  0.50000000  0.00000000  0.00000000  1
