# generated using pymatgen
data_NbI(BrCl)2
_symmetry_space_group_name_H-M   'P 1'
_cell_length_a   6.98741847
_cell_length_b   7.41609645
_cell_length_c   9.90869381
_cell_angle_alpha   111.56149758
_cell_angle_beta   90.03207309
_cell_angle_gamma   117.18569352
_symmetry_Int_Tables_number   1
_chemical_formula_structural   NbI(BrCl)2
_chemical_formula_sum   'Nb2 I2 Br4 Cl4'
_cell_volume   415.87913428
_cell_formula_units_Z   2
loop_
 _symmetry_equiv_pos_site_id
 _symmetry_equiv_pos_as_xyz
  1  'x, y, z'
loop_
 _atom_site_type_symbol
 _atom_site_label
 _atom_site_symmetry_multiplicity
 _atom_site_fract_x
 _atom_site_fract_y
 _atom_site_fract_z
 _atom_site_occupancy
  Br  Br0  1  0.48234423  0.37303112  0.15032970  1
  Br  Br1  1  0.25616621  0.18425762  0.42590552  1
  Br  Br2  1  0.74383424  0.81574230  0.57409384  1
  Br  Br3  1  0.51765656  0.62696949  0.84967076  1
  Cl  Cl4  1  0.04852375  0.83133053  0.03829539  1
  Cl  Cl5  1  0.13485462  0.56235340  0.32091602  1
  Cl  Cl6  1  0.86514544  0.43764569  0.67908444  1
  Cl  Cl7  1  0.95147630  0.16866857  0.96170508  1
  I  I8  1  0.69211626  0.00732379  0.24901256  1
  I  I9  1  0.30788310  0.99267682  0.75098791  1
  Nb  Nb10  1  0.11412780  0.21958512  0.21682541  1
  Nb  Nb11  1  0.88587156  0.78041549  0.78317505  1
