# generated using pymatgen
data_K3MgBi
_symmetry_space_group_name_H-M   'P 1'
_cell_length_a   9.09584658
_cell_length_b   9.09584659
_cell_length_c   9.09584658
_cell_angle_alpha   80.75837954
_cell_angle_beta   122.45780862
_cell_angle_gamma   128.60294806
_symmetry_Int_Tables_number   1
_chemical_formula_structural   K3MgBi
_chemical_formula_sum   'K6 Mg2 Bi2'
_cell_volume   478.59353453
_cell_formula_units_Z   2
loop_
 _symmetry_equiv_pos_site_id
 _symmetry_equiv_pos_as_xyz
  1  'x, y, z'
loop_
 _atom_site_type_symbol
 _atom_site_label
 _atom_site_symmetry_multiplicity
 _atom_site_fract_x
 _atom_site_fract_y
 _atom_site_fract_z
 _atom_site_occupancy
  K  K0  1  0.03309632  0.27307601  0.74133173  1
  K  K1  1  0.03309632  0.79176459  0.26002031  1
  K  K2  1  0.53174429  0.77307601  0.73997969  1
  K  K3  1  0.12605276  0.28016243  0.34589033  1
  K  K4  1  0.53174429  0.29176459  0.25866827  1
  K  K5  1  0.93427209  0.78016243  0.65410967  1
  Mg  Mg6  1  0.53122500  0.03147676  0.99974824  1
  Mg  Mg7  1  0.03172952  0.53147776  0.00025276  1
  Bi  Bi8  1  0.52378699  0.78180721  0.24197978  1
  Bi  Bi9  1  0.53982743  0.28180721  0.75802022  1
