# generated using pymatgen
data_Ti3Tc2Ir
_symmetry_space_group_name_H-M   'P 1'
_cell_length_a   3.10282158
_cell_length_b   3.10282158
_cell_length_c   9.32121142
_cell_angle_alpha   90.00000000
_cell_angle_beta   90.00000000
_cell_angle_gamma   90.00000000
_symmetry_Int_Tables_number   1
_chemical_formula_structural   Ti3Tc2Ir
_chemical_formula_sum   'Ti3 Tc2 Ir1'
_cell_volume   89.73997933
_cell_formula_units_Z   1
loop_
 _symmetry_equiv_pos_site_id
 _symmetry_equiv_pos_as_xyz
  1  'x, y, z'
loop_
 _atom_site_type_symbol
 _atom_site_label
 _atom_site_symmetry_multiplicity
 _atom_site_fract_x
 _atom_site_fract_y
 _atom_site_fract_z
 _atom_site_occupancy
  Ti  Ti0  1  0.00000000  0.00000000  0.00000000  1
  Ti  Ti1  1  0.00000000  0.00000000  0.67362072  1
  Ti  Ti2  1  0.00000000  0.00000000  0.32637928  1
  Tc  Tc3  1  0.50000000  0.50000000  0.83180261  1
  Tc  Tc4  1  0.50000000  0.50000000  0.16819739  1
  Ir  Ir5  1  0.50000000  0.50000000  0.50000000  1
