# generated using pymatgen
data_Na3TlHg4
_symmetry_space_group_name_H-M   'P 1'
_cell_length_a   3.41529406
_cell_length_b   5.70049409
_cell_length_c   21.03917513
_cell_angle_alpha   148.24772318
_cell_angle_beta   94.65553961
_cell_angle_gamma   90.00000000
_symmetry_Int_Tables_number   1
_chemical_formula_structural   Na3TlHg4
_chemical_formula_sum   'Na3 Tl1 Hg4'
_cell_volume   212.97645804
_cell_formula_units_Z   1
loop_
 _symmetry_equiv_pos_site_id
 _symmetry_equiv_pos_as_xyz
  1  'x, y, z'
loop_
 _atom_site_type_symbol
 _atom_site_label
 _atom_site_symmetry_multiplicity
 _atom_site_fract_x
 _atom_site_fract_y
 _atom_site_fract_z
 _atom_site_occupancy
  Na  Na0  1  -0.00000000  0.50000000  -0.00000000  1
  Na  Na1  1  0.13777942  0.99309446  0.27555783  1
  Na  Na2  1  0.86222058  0.00690554  0.72444217  1
  Tl  Tl3  1  0.50000000  0.00000000  0.00000000  1
  Hg  Hg4  1  0.61633743  0.35422398  0.23267585  1
  Hg  Hg5  1  0.38366257  0.64577602  0.76732415  1
  Hg  Hg6  1  0.76153989  0.82664292  0.52307978  1
  Hg  Hg7  1  0.23846011  0.17335708  0.47692022  1
