# generated using pymatgen
data_AlNiPt2
_symmetry_space_group_name_H-M   'P 1'
_cell_length_a   9.18227402
_cell_length_b   10.05113189
_cell_length_c   10.05113207
_cell_angle_alpha   61.46948154
_cell_angle_beta   62.82060032
_cell_angle_gamma   62.82060273
_symmetry_Int_Tables_number   1
_chemical_formula_structural   AlNiPt2
_chemical_formula_sum   'Al1 Ni1 Pt2'
_cell_volume   690.38613305
_cell_formula_units_Z   1
loop_
 _symmetry_equiv_pos_site_id
 _symmetry_equiv_pos_as_xyz
  1  'x, y, z'
loop_
 _atom_site_type_symbol
 _atom_site_label
 _atom_site_symmetry_multiplicity
 _atom_site_fract_x
 _atom_site_fract_y
 _atom_site_fract_z
 _atom_site_occupancy
  Al  Al0  1  0.00000000  0.00000000  0.00000000  1
  Ni  Ni1  1  0.50000000  0.00000000  -0.00000000  1
  Pt  Pt2  1  0.75407479  1.00000000  -0.00000000  1
  Pt  Pt3  1  0.24592521  0.00000000  1.00000000  1
