# generated using pymatgen
data_RbCr(OsO4)2
_symmetry_space_group_name_H-M   'P 1'
_cell_length_a   5.36615476
_cell_length_b   5.36615476
_cell_length_c   8.52546290
_cell_angle_alpha   90.00000000
_cell_angle_beta   90.00000000
_cell_angle_gamma   119.99999993
_symmetry_Int_Tables_number   1
_chemical_formula_structural   RbCr(OsO4)2
_chemical_formula_sum   'Rb1 Cr1 Os2 O8'
_cell_volume   212.60574113
_cell_formula_units_Z   1
loop_
 _symmetry_equiv_pos_site_id
 _symmetry_equiv_pos_as_xyz
  1  'x, y, z'
loop_
 _atom_site_type_symbol
 _atom_site_label
 _atom_site_symmetry_multiplicity
 _atom_site_fract_x
 _atom_site_fract_y
 _atom_site_fract_z
 _atom_site_occupancy
  Rb  Rb0  1  0.00000000  0.00000000  0.00000000  1
  Cr  Cr1  1  0.00000000  0.00000000  0.50000000  1
  Os  Os2  1  0.66666667  0.33333333  0.29036749  1
  Os  Os3  1  0.33333333  0.66666667  0.70963251  1
  O  O4  1  0.33333333  0.66666667  0.91751176  1
  O  O5  1  0.32414501  0.28543220  0.35653631  1
  O  O6  1  0.71456780  0.03871281  0.35653631  1
  O  O7  1  0.66666667  0.33333333  0.08248824  1
  O  O8  1  0.28543220  0.96128719  0.64346369  1
  O  O9  1  0.67585499  0.71456780  0.64346369  1
  O  O10  1  0.03871281  0.32414501  0.64346369  1
  O  O11  1  0.96128719  0.67585499  0.35653631  1
