# generated using pymatgen
data_Al3Pt5
_symmetry_space_group_name_H-M   'P 1'
_cell_length_a   4.00672520
_cell_length_b   5.47291292
_cell_length_c   10.87931219
_cell_angle_alpha   90.00000000
_cell_angle_beta   90.00000000
_cell_angle_gamma   90.00000000
_symmetry_Int_Tables_number   1
_chemical_formula_structural   Al3Pt5
_chemical_formula_sum   'Al6 Pt10'
_cell_volume   238.56654167
_cell_formula_units_Z   2
loop_
 _symmetry_equiv_pos_site_id
 _symmetry_equiv_pos_as_xyz
  1  'x, y, z'
loop_
 _atom_site_type_symbol
 _atom_site_label
 _atom_site_symmetry_multiplicity
 _atom_site_fract_x
 _atom_site_fract_y
 _atom_site_fract_z
 _atom_site_occupancy
  Al  Al0  1  0.50000000  0.18111565  0.63999675  1
  Al  Al1  1  0.50000000  0.81888435  0.36000325  1
  Al  Al2  1  0.50000000  0.68111565  0.86000325  1
  Al  Al3  1  0.50000000  0.31888435  0.13999675  1
  Al  Al4  1  0.00000000  0.50000000  0.50000000  1
  Al  Al5  1  0.00000000  0.00000000  0.00000000  1
  Pt  Pt6  1  0.50000000  0.29337214  0.39286113  1
  Pt  Pt7  1  0.50000000  0.70662786  0.60713887  1
  Pt  Pt8  1  0.50000000  0.79337214  0.10713887  1
  Pt  Pt9  1  0.50000000  0.20662786  0.89286113  1
  Pt  Pt10  1  0.00000000  0.42912604  0.73129529  1
  Pt  Pt11  1  0.00000000  0.57087396  0.26870471  1
  Pt  Pt12  1  0.00000000  0.92912604  0.76870471  1
  Pt  Pt13  1  0.00000000  0.07087396  0.23129529  1
  Pt  Pt14  1  0.00000000  0.50000000  0.00000000  1
  Pt  Pt15  1  0.00000000  0.00000000  0.50000000  1
