# generated using pymatgen
data_CsMoP2HO9
_symmetry_space_group_name_H-M   'P 1'
_cell_length_a   6.36867735
_cell_length_b   10.42375166
_cell_length_c   14.23288286
_cell_angle_alpha   90.00000000
_cell_angle_beta   90.00000000
_cell_angle_gamma   100.19221989
_symmetry_Int_Tables_number   1
_chemical_formula_structural   CsMoP2HO9
_chemical_formula_sum   'Cs4 Mo4 P8 H4 O36'
_cell_volume   929.94702027
_cell_formula_units_Z   4
loop_
 _symmetry_equiv_pos_site_id
 _symmetry_equiv_pos_as_xyz
  1  'x, y, z'
loop_
 _atom_site_type_symbol
 _atom_site_label
 _atom_site_symmetry_multiplicity
 _atom_site_fract_x
 _atom_site_fract_y
 _atom_site_fract_z
 _atom_site_occupancy
  Cs  Cs0  1  0.19980427  0.36701797  0.65961278  1
  Cs  Cs1  1  0.80019573  0.13298203  0.15961278  1
  Cs  Cs2  1  0.80019573  0.63298203  0.34038722  1
  Cs  Cs3  1  0.19980427  0.86701797  0.84038722  1
  Mo  Mo4  1  0.29777928  0.23385728  0.95197093  1
  Mo  Mo5  1  0.70222072  0.26614272  0.45197093  1
  Mo  Mo6  1  0.70222072  0.76614272  0.04802907  1
  Mo  Mo7  1  0.29777928  0.73385728  0.54802907  1
  P  P8  1  0.61194134  0.02459796  0.63001914  1
  P  P9  1  0.38805866  0.47540204  0.13001914  1
  P  P10  1  0.38805866  0.97540204  0.36998086  1
  P  P11  1  0.61194134  0.52459796  0.86998086  1
  P  P12  1  0.81470667  0.80087722  0.59930273  1
  P  P13  1  0.18529333  0.69912278  0.09930273  1
  P  P14  1  0.18529333  0.19912278  0.40069727  1
  P  P15  1  0.81470667  0.30087722  0.90069727  1
  H  H16  1  0.70639094  0.62763104  0.73467485  1
  H  H17  1  0.29360906  0.87236896  0.23467485  1
  H  H18  1  0.29360906  0.37236896  0.26532515  1
  H  H19  1  0.70639094  0.12763104  0.76532515  1
  O  O20  1  0.40785456  0.43210574  0.89472568  1
  O  O21  1  0.59214544  0.06789426  0.39472568  1
  O  O22  1  0.59214544  0.56789426  0.10527432  1
  O  O23  1  0.40785456  0.93210574  0.60527432  1
  O  O24  1  0.64954724  0.65722261  0.91643782  1
  O  O25  1  0.35045276  0.84277739  0.41643782  1
  O  O26  1  0.35045276  0.34277739  0.08356218  1
  O  O27  1  0.64954724  0.15722261  0.58356218  1
  O  O28  1  0.62376623  0.03931974  0.73918364  1
  O  O29  1  0.37623377  0.46068026  0.23918364  1
  O  O30  1  0.37623377  0.96068026  0.26081636  1
  O  O31  1  0.62376623  0.53931974  0.76081636  1
  O  O32  1  0.81209082  0.45556402  0.90065722  1
  O  O33  1  0.18790918  0.04443598  0.40065722  1
  O  O34  1  0.18790918  0.54443598  0.09934278  1
  O  O35  1  0.81209082  0.95556402  0.59934278  1
  O  O36  1  0.61750002  0.23522521  0.95833385  1
  O  O37  1  0.38249998  0.26477479  0.45833385  1
  O  O38  1  0.38249998  0.76477479  0.04166615  1
  O  O39  1  0.61750002  0.73522521  0.54166615  1
  O  O40  1  0.82312748  0.25287508  0.80154908  1
  O  O41  1  0.17687252  0.24712492  0.30154908  1
  O  O42  1  0.17687252  0.74712492  0.19845092  1
  O  O43  1  0.82312748  0.75287508  0.69845092  1
  O  O44  1  0.01041029  0.78967430  0.53757232  1
  O  O45  1  0.98958971  0.71032570  0.03757232  1
  O  O46  1  0.98958971  0.21032570  0.46242768  1
  O  O47  1  0.01041029  0.28967430  0.96242768  1
  O  O48  1  0.26079841  0.67753991  0.66275687  1
  O  O49  1  0.73920159  0.82246009  0.16275687  1
  O  O50  1  0.73920159  0.32246009  0.33724313  1
  O  O51  1  0.26079841  0.17753991  0.83724313  1
  O  O52  1  0.76235016  0.90870976  0.98351196  1
  O  O53  1  0.23764984  0.59129024  0.48351196  1
  O  O54  1  0.23764984  0.09129024  0.01648804  1
  O  O55  1  0.76235016  0.40870976  0.51648804  1
