# generated using pymatgen
data_CaZr2Ru
_symmetry_space_group_name_H-M   'P 1'
_cell_length_a   7.96169607
_cell_length_b   7.96169607
_cell_length_c   6.40478249
_cell_angle_alpha   51.57109625
_cell_angle_beta   51.57109625
_cell_angle_gamma   90.00000000
_symmetry_Int_Tables_number   1
_chemical_formula_structural   CaZr2Ru
_chemical_formula_sum   'Ca2 Zr4 Ru2'
_cell_volume   193.58901245
_cell_formula_units_Z   2
loop_
 _symmetry_equiv_pos_site_id
 _symmetry_equiv_pos_as_xyz
  1  'x, y, z'
loop_
 _atom_site_type_symbol
 _atom_site_label
 _atom_site_symmetry_multiplicity
 _atom_site_fract_x
 _atom_site_fract_y
 _atom_site_fract_z
 _atom_site_occupancy
  Ru  Ru0  1  0.00000000  0.00000000  0.00000000  1
  Ru  Ru1  1  0.75000000  0.25000000  0.50000000  1
  Ca  Ca2  1  0.50000000  0.50000000  0.00000000  1
  Ca  Ca3  1  0.25000000  0.75000000  0.50000000  1
  Zr  Zr4  1  0.69079540  0.12500000  0.25000000  1
  Zr  Zr5  1  0.05920460  0.62500000  0.25000000  1
  Zr  Zr6  1  0.37500000  0.30920460  0.75000000  1
  Zr  Zr7  1  0.87500000  0.94079540  0.75000000  1
