# generated using pymatgen
data_Ga(SbAu)2
_symmetry_space_group_name_H-M   'P 1'
_cell_length_a   7.96574441
_cell_length_b   7.96574441
_cell_length_c   3.71984493
_cell_angle_alpha   90.00000000
_cell_angle_beta   90.00000000
_cell_angle_gamma   90.00000000
_symmetry_Int_Tables_number   1
_chemical_formula_structural   Ga(SbAu)2
_chemical_formula_sum   'Ga2 Sb4 Au4'
_cell_volume   236.03563283
_cell_formula_units_Z   2
loop_
 _symmetry_equiv_pos_site_id
 _symmetry_equiv_pos_as_xyz
  1  'x, y, z'
loop_
 _atom_site_type_symbol
 _atom_site_label
 _atom_site_symmetry_multiplicity
 _atom_site_fract_x
 _atom_site_fract_y
 _atom_site_fract_z
 _atom_site_occupancy
  Sb  Sb0  1  0.31770586  0.81770586  0.00000000  1
  Sb  Sb1  1  0.81770586  0.68229414  0.00000000  1
  Sb  Sb2  1  0.68229414  0.18229414  0.00000000  1
  Sb  Sb3  1  0.18229414  0.31770586  0.00000000  1
  Au  Au4  1  0.12552307  0.62552307  0.50000000  1
  Au  Au5  1  0.62552307  0.87447693  0.50000000  1
  Au  Au6  1  0.87447693  0.37447693  0.50000000  1
  Au  Au7  1  0.37447693  0.12552307  0.50000000  1
  Ga  Ga8  1  0.00000000  0.00000000  0.00000000  1
  Ga  Ga9  1  0.50000000  0.50000000  0.00000000  1
