# generated using pymatgen
data_Na2TaPt
_symmetry_space_group_name_H-M   'P 1'
_cell_length_a   8.48660848
_cell_length_b   8.48660848
_cell_length_c   6.52599219
_cell_angle_alpha   49.44211414
_cell_angle_beta   49.44211414
_cell_angle_gamma   90.00000000
_symmetry_Int_Tables_number   1
_chemical_formula_structural   Na2TaPt
_chemical_formula_sum   'Na4 Ta2 Pt2'
_cell_volume   184.71091844
_cell_formula_units_Z   2
loop_
 _symmetry_equiv_pos_site_id
 _symmetry_equiv_pos_as_xyz
  1  'x, y, z'
loop_
 _atom_site_type_symbol
 _atom_site_label
 _atom_site_symmetry_multiplicity
 _atom_site_fract_x
 _atom_site_fract_y
 _atom_site_fract_z
 _atom_site_occupancy
  Na  Na0  1  0.67020460  0.12500000  0.25000000  1
  Na  Na1  1  0.07979540  0.62500000  0.25000000  1
  Na  Na2  1  0.37500000  0.32979540  0.75000000  1
  Na  Na3  1  0.87500000  0.92020460  0.75000000  1
  Pt  Pt4  1  0.00000000  0.00000000  0.00000000  1
  Pt  Pt5  1  0.75000000  0.25000000  0.50000000  1
  Ta  Ta6  1  0.50000000  0.50000000  0.00000000  1
  Ta  Ta7  1  0.25000000  0.75000000  0.50000000  1
