# generated using pymatgen
data_RbOs2RhO8
_symmetry_space_group_name_H-M   'P 1'
_cell_length_a   5.26099554
_cell_length_b   5.26099554
_cell_length_c   8.87074343
_cell_angle_alpha   90.00000000
_cell_angle_beta   90.00000000
_cell_angle_gamma   119.99999996
_symmetry_Int_Tables_number   1
_chemical_formula_structural   RbOs2RhO8
_chemical_formula_sum   'Rb1 Os2 Rh1 O8'
_cell_volume   212.63096835
_cell_formula_units_Z   1
loop_
 _symmetry_equiv_pos_site_id
 _symmetry_equiv_pos_as_xyz
  1  'x, y, z'
loop_
 _atom_site_type_symbol
 _atom_site_label
 _atom_site_symmetry_multiplicity
 _atom_site_fract_x
 _atom_site_fract_y
 _atom_site_fract_z
 _atom_site_occupancy
  Rb  Rb0  1  0.00000000  0.00000000  0.00000000  1
  Os  Os1  1  0.66666667  0.33333333  0.28869859  1
  Os  Os2  1  0.33333333  0.66666667  0.71130141  1
  Rh  Rh3  1  0.00000000  0.00000000  0.50000000  1
  O  O4  1  0.33333333  0.66666667  0.91078266  1
  O  O5  1  0.33530309  0.30601280  0.36507952  1
  O  O6  1  0.69398720  0.02929029  0.36507952  1
  O  O7  1  0.66666667  0.33333333  0.08921734  1
  O  O8  1  0.30601280  0.97070971  0.63492048  1
  O  O9  1  0.66469691  0.69398720  0.63492048  1
  O  O10  1  0.02929029  0.33530309  0.63492048  1
  O  O11  1  0.97070971  0.66469691  0.36507952  1
