# generated using pymatgen
data_La2Mg
_symmetry_space_group_name_H-M   'P 1'
_cell_length_a   6.78893388
_cell_length_b   6.78893389
_cell_length_c   8.55824443
_cell_angle_alpha   72.34638992
_cell_angle_beta   72.34638992
_cell_angle_gamma   31.64954255
_symmetry_Int_Tables_number   1
_chemical_formula_structural   La2Mg
_chemical_formula_sum   'La4 Mg2'
_cell_volume   196.42367616
_cell_formula_units_Z   2
loop_
 _symmetry_equiv_pos_site_id
 _symmetry_equiv_pos_as_xyz
  1  'x, y, z'
loop_
 _atom_site_type_symbol
 _atom_site_label
 _atom_site_symmetry_multiplicity
 _atom_site_fract_x
 _atom_site_fract_y
 _atom_site_fract_z
 _atom_site_occupancy
  La  La0  1  0.98370219  0.98370219  0.01104502  1
  La  La1  1  0.34327624  0.34327624  0.37062217  1
  La  La2  1  0.64571539  0.64571539  0.68137107  1
  La  La3  1  0.63232636  0.63232636  0.24948002  1
  Mg  Mg4  1  0.94270992  0.94270992  0.61945875  1
  Mg  Mg5  1  0.28560321  0.28560321  0.90135631  1
