# generated using pymatgen
data_Cs2Na7Hg
_symmetry_space_group_name_H-M   'P 1'
_cell_length_a   5.93859932
_cell_length_b   5.93859756
_cell_length_c   13.63932111
_cell_angle_alpha   89.99999765
_cell_angle_beta   90.00000000
_cell_angle_gamma   90.00000000
_symmetry_Int_Tables_number   1
_chemical_formula_structural   Cs2Na7Hg
_chemical_formula_sum   'Cs2 Na7 Hg1'
_cell_volume   481.01727515
_cell_formula_units_Z   1
loop_
 _symmetry_equiv_pos_site_id
 _symmetry_equiv_pos_as_xyz
  1  'x, y, z'
loop_
 _atom_site_type_symbol
 _atom_site_label
 _atom_site_symmetry_multiplicity
 _atom_site_fract_x
 _atom_site_fract_y
 _atom_site_fract_z
 _atom_site_occupancy
  Cs  Cs0  1  0.50000000  1.00000000  0.76795833  1
  Cs  Cs1  1  0.00000000  0.50000000  0.23204167  1
  Na  Na2  1  0.00000000  0.50000000  0.89415460  1
  Na  Na3  1  0.50000000  1.00000000  0.36165624  1
  Na  Na4  1  0.50000000  -0.00000000  0.10584540  1
  Na  Na5  1  0.00000000  0.50000000  0.63834376  1
  Na  Na6  1  0.00000000  -0.00000000  0.50000000  1
  Na  Na7  1  0.00000000  0.00000000  0.00000000  1
  Na  Na8  1  0.50000000  0.50000000  0.50000000  1
  Hg  Hg9  1  0.50000000  0.50000000  0.00000000  1
