# generated using pymatgen
data_LaIn2Pt
_symmetry_space_group_name_H-M   'P 1'
_cell_length_a   6.29227468
_cell_length_b   6.29227470
_cell_length_c   6.29227468
_cell_angle_alpha   147.65414732
_cell_angle_beta   131.41865683
_cell_angle_gamma   59.57633887
_symmetry_Int_Tables_number   1
_chemical_formula_structural   LaIn2Pt
_chemical_formula_sum   'La1 In2 Pt1'
_cell_volume   99.09424924
_cell_formula_units_Z   1
loop_
 _symmetry_equiv_pos_site_id
 _symmetry_equiv_pos_as_xyz
  1  'x, y, z'
loop_
 _atom_site_type_symbol
 _atom_site_label
 _atom_site_symmetry_multiplicity
 _atom_site_fract_x
 _atom_site_fract_y
 _atom_site_fract_z
 _atom_site_occupancy
  In  In0  1  0.03878645  0.03878645  0.00000000  1
  In  In1  1  0.46121355  0.46121355  1.00000000  1
  La  La2  1  0.75000000  0.25000000  0.50000000  1
  Pt  Pt3  1  0.25000000  0.75000000  0.50000000  1
