# generated using pymatgen
data_Tl2Ni(AsO3)2
_symmetry_space_group_name_H-M   'P 1'
_cell_length_a   5.49334251
_cell_length_b   6.80109305
_cell_length_c   6.28207333
_cell_angle_alpha   108.50995595
_cell_angle_beta   90.00000000
_cell_angle_gamma   113.81954118
_symmetry_Int_Tables_number   1
_chemical_formula_structural   Tl2Ni(AsO3)2
_chemical_formula_sum   'Tl2 Ni1 As2 O6'
_cell_volume   201.36800513
_cell_formula_units_Z   1
loop_
 _symmetry_equiv_pos_site_id
 _symmetry_equiv_pos_as_xyz
  1  'x, y, z'
loop_
 _atom_site_type_symbol
 _atom_site_label
 _atom_site_symmetry_multiplicity
 _atom_site_fract_x
 _atom_site_fract_y
 _atom_site_fract_z
 _atom_site_occupancy
  Tl  Tl0  1  0.73412224  0.46824549  0.21563304  1
  Tl  Tl1  1  0.26587776  0.53175451  0.78436696  1
  Ni  Ni2  1  0.50000000  -0.00000000  0.50000000  1
  As  As3  1  0.98034296  0.96068692  0.79051525  1
  As  As4  1  0.01965704  0.03931308  0.20948475  1
  O  O5  1  0.83522668  0.67045235  0.65621507  1
  O  O6  1  0.20187593  0.89596253  0.25453079  1
  O  O7  1  0.30591440  0.10403747  0.74546921  1
  O  O8  1  0.79812407  0.10403747  0.74546921  1
  O  O9  1  0.69408560  0.89596253  0.25453079  1
  O  O10  1  0.16477332  0.32954765  0.34378493  1
