# generated using pymatgen
data_Tb2SmRuN4
_symmetry_space_group_name_H-M   'P 1'
_cell_length_a   3.42973956
_cell_length_b   6.08782610
_cell_length_c   11.68789369
_cell_angle_alpha   90.00000000
_cell_angle_beta   90.00000000
_cell_angle_gamma   106.36099747
_symmetry_Int_Tables_number   1
_chemical_formula_structural   Tb2SmRuN4
_chemical_formula_sum   'Tb4 Sm2 Ru2 N8'
_cell_volume   234.15708638
_cell_formula_units_Z   2
loop_
 _symmetry_equiv_pos_site_id
 _symmetry_equiv_pos_as_xyz
  1  'x, y, z'
loop_
 _atom_site_type_symbol
 _atom_site_label
 _atom_site_symmetry_multiplicity
 _atom_site_fract_x
 _atom_site_fract_y
 _atom_site_fract_z
 _atom_site_occupancy
  Tb  Tb0  1  0.36876726  0.73753451  0.54246641  1
  Tb  Tb1  1  0.63123274  0.26246549  0.04246641  1
  Tb  Tb2  1  0.63123274  0.26246549  0.45753359  1
  Tb  Tb3  1  0.36876726  0.73753451  0.95753359  1
  Sm  Sm4  1  0.12381329  0.24762659  0.75000000  1
  Sm  Sm5  1  0.87618671  0.75237341  0.25000000  1
  Ru  Ru6  1  0.85911224  0.71822448  0.75000000  1
  Ru  Ru7  1  0.14088776  0.28177552  0.25000000  1
  N  N8  1  0.26832790  0.53665580  0.12997069  1
  N  N9  1  0.73167210  0.46334420  0.62997069  1
  N  N10  1  0.73167210  0.46334420  0.87002931  1
  N  N11  1  0.26832790  0.53665580  0.37002931  1
  N  N12  1  0.00000000  0.00000000  0.50000000  1
  N  N13  1  0.00000000  0.00000000  0.00000000  1
  N  N14  1  0.44372853  0.88745706  0.75000000  1
  N  N15  1  0.55627147  0.11254294  0.25000000  1
