# generated using pymatgen
data_Nd8Tl4In3
_symmetry_space_group_name_H-M   'P 1'
_cell_length_a   8.96457321
_cell_length_b   8.98848384
_cell_length_c   8.98848384
_cell_angle_alpha   89.98337972
_cell_angle_beta   119.92981516
_cell_angle_gamma   119.92981514
_symmetry_Int_Tables_number   1
_chemical_formula_structural   Nd8Tl4In3
_chemical_formula_sum   'Nd8 Tl4 In3'
_cell_volume   513.29703341
_cell_formula_units_Z   1
loop_
 _symmetry_equiv_pos_site_id
 _symmetry_equiv_pos_as_xyz
  1  'x, y, z'
loop_
 _atom_site_type_symbol
 _atom_site_label
 _atom_site_symmetry_multiplicity
 _atom_site_fract_x
 _atom_site_fract_y
 _atom_site_fract_z
 _atom_site_occupancy
  Nd  Nd0  1  0.56032093  0.28075839  0.28075839  1
  Nd  Nd1  1  0.00000000  0.71975389  0.28024611  1
  Nd  Nd2  1  0.00120737  0.28070419  0.28070419  1
  Nd  Nd3  1  0.50000000  0.74937940  0.25062060  1
  Nd  Nd4  1  0.50000000  0.25062060  0.74937940  1
  Nd  Nd5  1  0.99879263  0.71929581  0.71929581  1
  Nd  Nd6  1  0.00000000  0.28024611  0.71975389  1
  Nd  Nd7  1  0.43967907  0.71924161  0.71924161  1
  Tl  Tl8  1  0.50000000  0.00000000  -0.00000000  1
  Tl  Tl9  1  0.00000000  0.50000000  0.00000000  1
  Tl  Tl10  1  0.00000000  0.00000000  0.00000000  1
  Tl  Tl11  1  0.00000000  0.00000000  0.50000000  1
  In  In12  1  0.50000000  0.50000000  0.00000000  1
  In  In13  1  0.50000000  -0.00000000  0.50000000  1
  In  In14  1  0.50000000  0.50000000  0.50000000  1
