# generated using pymatgen
data_Tb3Er3Ni4
_symmetry_space_group_name_H-M   'P 1'
_cell_length_a   3.85544189
_cell_length_b   7.49329123
_cell_length_c   7.49329182
_cell_angle_alpha   90.13260987
_cell_angle_beta   90.00000000
_cell_angle_gamma   90.00000000
_symmetry_Int_Tables_number   1
_chemical_formula_structural   Tb3Er3Ni4
_chemical_formula_sum   'Tb3 Er3 Ni4'
_cell_volume   216.48023789
_cell_formula_units_Z   1
loop_
 _symmetry_equiv_pos_site_id
 _symmetry_equiv_pos_as_xyz
  1  'x, y, z'
loop_
 _atom_site_type_symbol
 _atom_site_label
 _atom_site_symmetry_multiplicity
 _atom_site_fract_x
 _atom_site_fract_y
 _atom_site_fract_z
 _atom_site_occupancy
  Tb  Tb0  1  0.00000000  0.50109616  0.99900480  1
  Tb  Tb1  1  0.00000000  0.00099520  0.49890384  1
  Tb  Tb2  1  0.50000000  0.16281103  0.83718897  1
  Er  Er3  1  0.50000000  0.83393292  0.16606708  1
  Er  Er4  1  0.50000000  0.33700950  0.33483016  1
  Er  Er5  1  0.50000000  0.66516984  0.66299050  1
  Ni  Ni6  1  0.00000000  0.62415699  0.37584301  1
  Ni  Ni7  1  0.00000000  0.37939464  0.62060536  1
  Ni  Ni8  1  0.00000000  0.87346427  0.87803155  1
  Ni  Ni9  1  0.00000000  0.12196845  0.12653573  1
