# generated using pymatgen
data_BAsPdSe2
_symmetry_space_group_name_H-M   'P 1'
_cell_length_a   4.53968852
_cell_length_b   4.53968852
_cell_length_c   4.19241856
_cell_angle_alpha   90.00000000
_cell_angle_beta   90.00000000
_cell_angle_gamma   90.00000000
_symmetry_Int_Tables_number   1
_chemical_formula_structural   BAsPdSe2
_chemical_formula_sum   'B1 As1 Pd1 Se2'
_cell_volume   86.40059764
_cell_formula_units_Z   1
loop_
 _symmetry_equiv_pos_site_id
 _symmetry_equiv_pos_as_xyz
  1  'x, y, z'
loop_
 _atom_site_type_symbol
 _atom_site_label
 _atom_site_symmetry_multiplicity
 _atom_site_fract_x
 _atom_site_fract_y
 _atom_site_fract_z
 _atom_site_occupancy
  As  As0  1  0.00000000  0.00000000  0.50000000  1
  B  B1  1  0.00000000  0.00000000  0.00000000  1
  Se  Se2  1  0.00000000  0.50000000  0.00000000  1
  Se  Se3  1  0.50000000  0.00000000  0.00000000  1
  Pd  Pd4  1  0.50000000  0.50000000  0.50000000  1
