# generated using pymatgen
data_Li3Dy3TiSe8
_symmetry_space_group_name_H-M   'P 1'
_cell_length_a   7.99479888
_cell_length_b   7.99435523
_cell_length_c   7.96153277
_cell_angle_alpha   120.15578305
_cell_angle_beta   90.00000000
_cell_angle_gamma   120.00183579
_symmetry_Int_Tables_number   1
_chemical_formula_structural   Li3Dy3TiSe8
_chemical_formula_sum   'Li3 Dy3 Ti1 Se8'
_cell_volume   358.94997432
_cell_formula_units_Z   1
loop_
 _symmetry_equiv_pos_site_id
 _symmetry_equiv_pos_as_xyz
  1  'x, y, z'
loop_
 _atom_site_type_symbol
 _atom_site_label
 _atom_site_symmetry_multiplicity
 _atom_site_fract_x
 _atom_site_fract_y
 _atom_site_fract_z
 _atom_site_occupancy
  Li  Li0  1  0.00000000  0.00000000  0.00000000  1
  Li  Li1  1  0.00000000  0.50000000  0.00000000  1
  Li  Li2  1  0.50000000  0.50000000  0.00000000  1
  Dy  Dy3  1  0.50000000  -0.00000000  0.50000000  1
  Dy  Dy4  1  0.50000000  0.50000000  0.50000000  1
  Dy  Dy5  1  0.00000000  0.50000000  0.50000000  1
  Ti  Ti6  1  -0.00000000  -0.00000000  0.50000000  1
  Se  Se7  1  0.24773005  0.49546009  0.24334278  1
  Se  Se8  1  0.75226995  0.50453991  0.75665722  1
  Se  Se9  1  0.76686376  0.53372853  0.26138989  1
  Se  Se10  1  0.23313624  0.46627147  0.73861011  1
  Se  Se11  1  0.76688635  0.99436851  0.26142625  1
  Se  Se12  1  0.23311365  0.00563149  0.73857375  1
  Se  Se13  1  0.22748216  0.99436851  0.26142625  1
  Se  Se14  1  0.77251784  0.00563149  0.73857375  1
