# generated using pymatgen
data_PuUV2
_symmetry_space_group_name_H-M   'P 1'
_cell_length_a   3.23223789
_cell_length_b   3.23223789
_cell_length_c   7.18338626
_cell_angle_alpha   90.00000000
_cell_angle_beta   90.00000000
_cell_angle_gamma   90.00000000
_symmetry_Int_Tables_number   1
_chemical_formula_structural   PuUV2
_chemical_formula_sum   'Pu1 U1 V2'
_cell_volume   75.04743505
_cell_formula_units_Z   1
loop_
 _symmetry_equiv_pos_site_id
 _symmetry_equiv_pos_as_xyz
  1  'x, y, z'
loop_
 _atom_site_type_symbol
 _atom_site_label
 _atom_site_symmetry_multiplicity
 _atom_site_fract_x
 _atom_site_fract_y
 _atom_site_fract_z
 _atom_site_occupancy
  V  V0  1  0.00000000  0.00000000  0.80087156  1
  V  V1  1  0.00000000  0.00000000  0.19912844  1
  U  U2  1  0.50000000  0.50000000  0.00000000  1
  Pu  Pu3  1  0.50000000  0.50000000  0.50000000  1
