# generated using pymatgen
data_GePIrN2
_symmetry_space_group_name_H-M   'P 1'
_cell_length_a   3.91623001
_cell_length_b   4.58944318
_cell_length_c   4.83472478
_cell_angle_alpha   71.59425217
_cell_angle_beta   82.87707041
_cell_angle_gamma   80.50579080
_symmetry_Int_Tables_number   1
_chemical_formula_structural   GePIrN2
_chemical_formula_sum   'Ge1 P1 Ir1 N2'
_cell_volume   81.08094297
_cell_formula_units_Z   1
loop_
 _symmetry_equiv_pos_site_id
 _symmetry_equiv_pos_as_xyz
  1  'x, y, z'
loop_
 _atom_site_type_symbol
 _atom_site_label
 _atom_site_symmetry_multiplicity
 _atom_site_fract_x
 _atom_site_fract_y
 _atom_site_fract_z
 _atom_site_occupancy
  Ge  Ge0  1  0.37365532  0.14120020  0.75440521  1
  P  P1  1  0.11975401  0.86189156  0.52622952  1
  Ir  Ir2  1  0.64875789  0.60824357  0.73117979  1
  N  N3  1  0.06433148  0.11803547  0.14857536  1
  N  N4  1  0.82004130  0.33265920  0.09941011  1
