# generated using pymatgen
data_CrGaCu
_symmetry_space_group_name_H-M   'P 1'
_cell_length_a   2.80250023
_cell_length_b   4.42512445
_cell_length_c   6.90050891
_cell_angle_alpha   96.19402339
_cell_angle_beta   90.00000000
_cell_angle_gamma   108.46092187
_symmetry_Int_Tables_number   1
_chemical_formula_structural   CrGaCu
_chemical_formula_sum   'Cr2 Ga2 Cu2'
_cell_volume   80.64545010
_cell_formula_units_Z   2
loop_
 _symmetry_equiv_pos_site_id
 _symmetry_equiv_pos_as_xyz
  1  'x, y, z'
loop_
 _atom_site_type_symbol
 _atom_site_label
 _atom_site_symmetry_multiplicity
 _atom_site_fract_x
 _atom_site_fract_y
 _atom_site_fract_z
 _atom_site_occupancy
  Cu  Cu0  1  0.32893047  0.65786094  0.38403793  1
  Cu  Cu1  1  0.67106953  0.34213906  0.61596207  1
  Ga  Ga2  1  0.58823859  0.17647717  0.24847231  1
  Ga  Ga3  1  0.41176141  0.82352283  0.75152769  1
  Cr  Cr4  1  0.85011566  0.70023031  0.05666497  1
  Cr  Cr5  1  0.14988434  0.29976969  0.94333503  1
