# generated using pymatgen
data_KThCuSe3
_symmetry_space_group_name_H-M   'P 1'
_cell_length_a   7.53979313
_cell_length_b   7.53979313
_cell_length_c   10.94563718
_cell_angle_alpha   90.00000000
_cell_angle_beta   90.00000000
_cell_angle_gamma   147.61057934
_symmetry_Int_Tables_number   1
_chemical_formula_structural   KThCuSe3
_chemical_formula_sum   'K2 Th2 Cu2 Se6'
_cell_volume   333.31737420
_cell_formula_units_Z   2
loop_
 _symmetry_equiv_pos_site_id
 _symmetry_equiv_pos_as_xyz
  1  'x, y, z'
loop_
 _atom_site_type_symbol
 _atom_site_label
 _atom_site_symmetry_multiplicity
 _atom_site_fract_x
 _atom_site_fract_y
 _atom_site_fract_z
 _atom_site_occupancy
  Cu  Cu0  1  0.96765336  0.03234818  0.25000006  1
  Cu  Cu1  1  0.03234818  0.96765336  0.75000019  1
  K  K2  1  0.24426610  0.75573544  0.25000006  1
  K  K3  1  0.75573544  0.24426610  0.75000019  1
  Se  Se4  1  0.86949174  0.13050980  0.06610945  1
  Se  Se5  1  0.56752547  0.43247607  0.25000006  1
  Se  Se6  1  0.86949174  0.13050980  0.43389068  1
  Se  Se7  1  0.13050980  0.86949174  0.56610957  1
  Se  Se8  1  0.43247607  0.56752547  0.75000019  1
  Se  Se9  1  0.13050980  0.86949174  0.93389081  1
  Th  Th10  1  0.50000077  0.50000077  0.00000000  1
  Th  Th11  1  0.50000077  0.50000077  0.50000013  1
