# generated using pymatgen
data_ZrAlNiPd
_symmetry_space_group_name_H-M   'P 1'
_cell_length_a   4.46104476
_cell_length_b   4.46104476
_cell_length_c   4.46104476
_cell_angle_alpha   60.00000000
_cell_angle_beta   60.00000000
_cell_angle_gamma   60.00000000
_symmetry_Int_Tables_number   1
_chemical_formula_structural   ZrAlNiPd
_chemical_formula_sum   'Zr1 Al1 Ni1 Pd1'
_cell_volume   62.77615965
_cell_formula_units_Z   1
loop_
 _symmetry_equiv_pos_site_id
 _symmetry_equiv_pos_as_xyz
  1  'x, y, z'
loop_
 _atom_site_type_symbol
 _atom_site_label
 _atom_site_symmetry_multiplicity
 _atom_site_fract_x
 _atom_site_fract_y
 _atom_site_fract_z
 _atom_site_occupancy
  Al  Al0  1  0.00000000  0.00000000  0.00000000  1
  Ni  Ni1  1  0.74999960  0.74999960  0.74999960  1
  Pd  Pd2  1  0.25000040  0.25000040  0.25000040  1
  Zr  Zr3  1  0.49999921  0.49999921  0.49999921  1
