# generated using pymatgen
data_ErTmNO
_symmetry_space_group_name_H-M   'P 1'
_cell_length_a   4.32940100
_cell_length_b   4.32940100
_cell_length_c   7.72775000
_cell_angle_alpha   90.00000000
_cell_angle_beta   90.00000000
_cell_angle_gamma   90.00000000
_symmetry_Int_Tables_number   1
_chemical_formula_structural   ErTmNO
_chemical_formula_sum   'Er2 Tm2 N2 O2'
_cell_volume   144.84672828
_cell_formula_units_Z   2
loop_
 _symmetry_equiv_pos_site_id
 _symmetry_equiv_pos_as_xyz
  1  'x, y, z'
loop_
 _atom_site_type_symbol
 _atom_site_label
 _atom_site_symmetry_multiplicity
 _atom_site_fract_x
 _atom_site_fract_y
 _atom_site_fract_z
 _atom_site_occupancy
  Er  Er0  1  0.25000225  0.25000225  0.09299861  1
  Er  Er1  1  0.75000214  0.75000214  0.90700139  1
  N  N2  1  0.75000214  0.75000214  0.41942868  1
  N  N3  1  0.25000225  0.25000225  0.58057002  1
  O  O4  1  0.75000214  0.25000225  0.00000000  1
  O  O5  1  0.25000225  0.75000214  0.00000000  1
  Tm  Tm6  1  0.75000214  0.25000225  0.50000065  1
  Tm  Tm7  1  0.25000225  0.75000214  0.50000065  1
