# generated using pymatgen
data_Si2AgF4
_symmetry_space_group_name_H-M   'P 1'
_cell_length_a   4.11363179
_cell_length_b   9.15441188
_cell_length_c   4.93268999
_cell_angle_alpha   90.00000000
_cell_angle_beta   95.06711037
_cell_angle_gamma   90.00000000
_symmetry_Int_Tables_number   1
_chemical_formula_structural   Si2AgF4
_chemical_formula_sum   'Si4 Ag2 F8'
_cell_volume   185.02870387
_cell_formula_units_Z   2
loop_
 _symmetry_equiv_pos_site_id
 _symmetry_equiv_pos_as_xyz
  1  'x, y, z'
loop_
 _atom_site_type_symbol
 _atom_site_label
 _atom_site_symmetry_multiplicity
 _atom_site_fract_x
 _atom_site_fract_y
 _atom_site_fract_z
 _atom_site_occupancy
  Ag  Ag0  1  0.00000000  0.00000000  0.00000000  1
  Ag  Ag1  1  0.00000000  0.50000044  0.50000074  1
  F  F2  1  0.25460395  0.55347411  0.09460634  1
  F  F3  1  0.72536975  0.72364015  0.12377344  1
  F  F4  1  0.27462838  0.22363971  0.37622730  1
  F  F5  1  0.74539419  0.05347367  0.40539440  1
  F  F6  1  0.25460496  0.94652612  0.59460709  1
  F  F7  1  0.72537076  0.77636009  0.62377419  1
  F  F8  1  0.27462917  0.27636074  0.87622601  1
  F  F9  1  0.74539498  0.44652677  0.90539311  1
  Si  Si10  1  0.31547619  0.73198148  0.09299036  1
  Si  Si11  1  0.68452416  0.23198104  0.40700835  1
  Si  Si12  1  0.31547477  0.76801875  0.59299110  1
  Si  Si13  1  0.68452517  0.26801940  0.90700910  1
