# generated using pymatgen
data_BaSe
_symmetry_space_group_name_H-M   'P 1'
_cell_length_a   5.60516929
_cell_length_b   6.63220431
_cell_length_c   5.63995585
_cell_angle_alpha   90.00000000
_cell_angle_beta   120.23299192
_cell_angle_gamma   90.00000000
_symmetry_Int_Tables_number   1
_chemical_formula_structural   BaSe
_chemical_formula_sum   'Ba2 Se2'
_cell_volume   181.14591421
_cell_formula_units_Z   2
loop_
 _symmetry_equiv_pos_site_id
 _symmetry_equiv_pos_as_xyz
  1  'x, y, z'
loop_
 _atom_site_type_symbol
 _atom_site_label
 _atom_site_symmetry_multiplicity
 _atom_site_fract_x
 _atom_site_fract_y
 _atom_site_fract_z
 _atom_site_occupancy
  Ba  Ba0  1  0.33457846  0.75000000  0.16727848  1
  Ba  Ba1  1  0.66542154  0.25000000  0.83272152  1
  Se  Se2  1  0.66507206  0.75000000  0.83267122  1
  Se  Se3  1  0.33492794  0.25000000  0.16732878  1
