# generated using pymatgen
data_Sr2NiAs
_symmetry_space_group_name_H-M   'P 1'
_cell_length_a   6.19758658
_cell_length_b   6.19758658
_cell_length_c   6.19758659
_cell_angle_alpha   138.33611972
_cell_angle_beta   138.33611971
_cell_angle_gamma   60.38857902
_symmetry_Int_Tables_number   1
_chemical_formula_structural   Sr2NiAs
_chemical_formula_sum   'Sr2 Ni1 As1'
_cell_volume   104.08707939
_cell_formula_units_Z   1
loop_
 _symmetry_equiv_pos_site_id
 _symmetry_equiv_pos_as_xyz
  1  'x, y, z'
loop_
 _atom_site_type_symbol
 _atom_site_label
 _atom_site_symmetry_multiplicity
 _atom_site_fract_x
 _atom_site_fract_y
 _atom_site_fract_z
 _atom_site_occupancy
  As  As0  1  0.50000000  0.50000000  -0.00000000  1
  Ni  Ni1  1  0.75000000  0.25000000  0.50000000  1
  Sr  Sr2  1  0.00000000  0.00000000  0.00000000  1
  Sr  Sr3  1  0.25000000  0.75000000  0.50000000  1
