# generated using pymatgen
data_Co2NiIr2
_symmetry_space_group_name_H-M   'P 1'
_cell_length_a   7.06842412
_cell_length_b   7.06842412
_cell_length_c   2.65221973
_cell_angle_alpha   90.00000000
_cell_angle_beta   90.00000000
_cell_angle_gamma   90.00000000
_symmetry_Int_Tables_number   1
_chemical_formula_structural   Co2NiIr2
_chemical_formula_sum   'Co4 Ni2 Ir4'
_cell_volume   132.51184531
_cell_formula_units_Z   2
loop_
 _symmetry_equiv_pos_site_id
 _symmetry_equiv_pos_as_xyz
  1  'x, y, z'
loop_
 _atom_site_type_symbol
 _atom_site_label
 _atom_site_symmetry_multiplicity
 _atom_site_fract_x
 _atom_site_fract_y
 _atom_site_fract_z
 _atom_site_occupancy
  Ni  Ni0  1  0.00000000  0.00000000  0.00000000  1
  Ni  Ni1  1  0.50000000  0.50000000  0.00000000  1
  Ir  Ir2  1  0.17374472  0.67374472  0.50000000  1
  Ir  Ir3  1  0.67374472  0.82625528  0.50000000  1
  Ir  Ir4  1  0.82625528  0.32625528  0.50000000  1
  Ir  Ir5  1  0.32625528  0.17374472  0.50000000  1
  Co  Co6  1  0.37768782  0.87768782  0.00000000  1
  Co  Co7  1  0.87768782  0.62231218  0.00000000  1
  Co  Co8  1  0.62231218  0.12231218  0.00000000  1
  Co  Co9  1  0.12231218  0.37768782  0.00000000  1
