# generated using pymatgen
data_Ca3TbSb2P
_symmetry_space_group_name_H-M   'P 1'
_cell_length_a   5.29403508
_cell_length_b   5.18616433
_cell_length_c   8.93092140
_cell_angle_alpha   106.87883831
_cell_angle_beta   107.24078397
_cell_angle_gamma   90.00000000
_symmetry_Int_Tables_number   1
_chemical_formula_structural   Ca3TbSb2P
_chemical_formula_sum   'Ca3 Tb1 Sb2 P1'
_cell_volume   223.10312055
_cell_formula_units_Z   1
loop_
 _symmetry_equiv_pos_site_id
 _symmetry_equiv_pos_as_xyz
  1  'x, y, z'
loop_
 _atom_site_type_symbol
 _atom_site_label
 _atom_site_symmetry_multiplicity
 _atom_site_fract_x
 _atom_site_fract_y
 _atom_site_fract_z
 _atom_site_occupancy
  Ca  Ca0  1  0.00000000  0.50000000  0.00000000  1
  Ca  Ca1  1  0.17464329  0.17464329  0.34928659  1
  Ca  Ca2  1  0.82535671  0.82535671  0.65071341  1
  Tb  Tb3  1  0.50000000  0.00000000  0.00000000  1
  Sb  Sb4  1  0.63268048  0.63267948  0.26535995  1
  Sb  Sb5  1  0.36731952  0.36732052  0.73464005  1
  P  P6  1  0.00000000  0.00000000  0.00000000  1
