# generated using pymatgen
data_Sr2Mg3AlZn4
_symmetry_space_group_name_H-M   'P 1'
_cell_length_a   4.46478378
_cell_length_b   4.46478378
_cell_length_c   11.87988780
_cell_angle_alpha   90.00000000
_cell_angle_beta   90.00000000
_cell_angle_gamma   90.00000000
_symmetry_Int_Tables_number   1
_chemical_formula_structural   Sr2Mg3AlZn4
_chemical_formula_sum   'Sr2 Mg3 Al1 Zn4'
_cell_volume   236.81717849
_cell_formula_units_Z   1
loop_
 _symmetry_equiv_pos_site_id
 _symmetry_equiv_pos_as_xyz
  1  'x, y, z'
loop_
 _atom_site_type_symbol
 _atom_site_label
 _atom_site_symmetry_multiplicity
 _atom_site_fract_x
 _atom_site_fract_y
 _atom_site_fract_z
 _atom_site_occupancy
  Sr  Sr0  1  0.50000000  0.00000000  0.25737038  1
  Sr  Sr1  1  0.00000000  0.50000000  0.74262962  1
  Mg  Mg2  1  0.00000000  0.00000000  0.50000000  1
  Mg  Mg3  1  0.50000000  0.00000000  0.86344378  1
  Mg  Mg4  1  0.00000000  0.50000000  0.13655622  1
  Al  Al5  1  0.50000000  0.50000000  0.50000000  1
  Zn  Zn6  1  0.50000000  0.50000000  0.00000000  1
  Zn  Zn7  1  0.00000000  0.00000000  0.00000000  1
  Zn  Zn8  1  0.50000000  0.00000000  0.63156623  1
  Zn  Zn9  1  0.00000000  0.50000000  0.36843377  1
