# generated using pymatgen
data_SrMgGa2
_symmetry_space_group_name_H-M   'P 1'
_cell_length_a   4.41968544
_cell_length_b   12.04593331
_cell_length_c   15.21108645
_cell_angle_alpha   90.00000849
_cell_angle_beta   90.00000000
_cell_angle_gamma   90.00000000
_symmetry_Int_Tables_number   1
_chemical_formula_structural   SrMgGa2
_chemical_formula_sum   'Sr8 Mg8 Ga16'
_cell_volume   809.82662226
_cell_formula_units_Z   8
loop_
 _symmetry_equiv_pos_site_id
 _symmetry_equiv_pos_as_xyz
  1  'x, y, z'
loop_
 _atom_site_type_symbol
 _atom_site_label
 _atom_site_symmetry_multiplicity
 _atom_site_fract_x
 _atom_site_fract_y
 _atom_site_fract_z
 _atom_site_occupancy
  Sr  Sr0  1  0.75000000  0.46816097  0.69834005  1
  Sr  Sr1  1  0.25000000  0.96816097  0.80165995  1
  Sr  Sr2  1  0.25000000  0.53183903  0.30165995  1
  Sr  Sr3  1  0.75000000  0.03183903  0.19834005  1
  Sr  Sr4  1  0.75000000  0.24033434  0.94140695  1
  Sr  Sr5  1  0.25000000  0.74033434  0.55859305  1
  Sr  Sr6  1  0.25000000  0.75966566  0.05859305  1
  Sr  Sr7  1  0.75000000  0.25966566  0.44140695  1
  Mg  Mg8  1  0.75000000  0.55616873  0.94131329  1
  Mg  Mg9  1  0.25000000  0.05616873  0.55868671  1
  Mg  Mg10  1  0.25000000  0.44383127  0.05868671  1
  Mg  Mg11  1  0.75000000  0.94383127  0.44131329  1
  Mg  Mg12  1  0.75000000  0.33496436  0.18711486  1
  Mg  Mg13  1  0.25000000  0.83496436  0.31288514  1
  Mg  Mg14  1  0.25000000  0.66503564  0.81288514  1
  Mg  Mg15  1  0.75000000  0.16503564  0.68711486  1
  Ga  Ga16  1  0.75000000  0.95923808  0.97581205  1
  Ga  Ga17  1  0.25000000  0.45923808  0.52418795  1
  Ga  Ga18  1  0.25000000  0.04076192  0.02418795  1
  Ga  Ga19  1  0.75000000  0.54076192  0.47581205  1
  Ga  Ga20  1  0.75000000  0.78062437  0.88946665  1
  Ga  Ga21  1  0.25000000  0.28062437  0.61053335  1
  Ga  Ga22  1  0.25000000  0.21937563  0.11053335  1
  Ga  Ga23  1  0.75000000  0.71937563  0.38946665  1
  Ga  Ga24  1  0.75000000  0.75858367  0.72071969  1
  Ga  Ga25  1  0.25000000  0.25858367  0.77928031  1
  Ga  Ga26  1  0.25000000  0.24141633  0.27928031  1
  Ga  Ga27  1  0.75000000  0.74141633  0.22071969  1
  Ga  Ga28  1  0.75000000  0.94059255  0.63118064  1
  Ga  Ga29  1  0.25000000  0.44059255  0.86881936  1
  Ga  Ga30  1  0.25000000  0.05940745  0.36881936  1
  Ga  Ga31  1  0.75000000  0.55940745  0.13118064  1
