# generated using pymatgen
data_Ca2AlRu
_symmetry_space_group_name_H-M   'P 1'
_cell_length_a   4.14577067
_cell_length_b   4.45982078
_cell_length_c   5.95165287
_cell_angle_alpha   68.03130240
_cell_angle_beta   90.00000000
_cell_angle_gamma   90.00000000
_symmetry_Int_Tables_number   1
_chemical_formula_structural   Ca2AlRu
_chemical_formula_sum   'Ca2 Al1 Ru1'
_cell_volume   102.05209438
_cell_formula_units_Z   1
loop_
 _symmetry_equiv_pos_site_id
 _symmetry_equiv_pos_as_xyz
  1  'x, y, z'
loop_
 _atom_site_type_symbol
 _atom_site_label
 _atom_site_symmetry_multiplicity
 _atom_site_fract_x
 _atom_site_fract_y
 _atom_site_fract_z
 _atom_site_occupancy
  Ru  Ru0  1  0.00000000  0.68065456  0.51352327  1
  Ca  Ca1  1  0.00000000  0.98526642  0.90516106  1
  Ca  Ca2  1  0.50000000  0.26601239  0.34254883  1
  Al  Al3  1  0.50000000  0.56806663  0.73876684  1
