# generated using pymatgen
data_Sr3CdAg2
_symmetry_space_group_name_H-M   'P 1'
_cell_length_a   3.94375558
_cell_length_b   5.64345555
_cell_length_c   8.92721744
_cell_angle_alpha   108.42612313
_cell_angle_beta   90.00000000
_cell_angle_gamma   90.00000000
_symmetry_Int_Tables_number   1
_chemical_formula_structural   Sr3CdAg2
_chemical_formula_sum   'Sr3 Cd1 Ag2'
_cell_volume   188.50147865
_cell_formula_units_Z   1
loop_
 _symmetry_equiv_pos_site_id
 _symmetry_equiv_pos_as_xyz
  1  'x, y, z'
loop_
 _atom_site_type_symbol
 _atom_site_label
 _atom_site_symmetry_multiplicity
 _atom_site_fract_x
 _atom_site_fract_y
 _atom_site_fract_z
 _atom_site_occupancy
  Sr  Sr0  1  0.50000000  0.50000000  0.00000000  1
  Sr  Sr1  1  0.50000000  0.82957119  0.65914339  1
  Sr  Sr2  1  0.50000000  0.17042881  0.34085661  1
  Cd  Cd3  1  0.00000000  0.00000000  0.00000000  1
  Ag  Ag4  1  0.00000000  0.33715836  0.67431571  1
  Ag  Ag5  1  0.00000000  0.66284164  0.32568429  1
