# generated using pymatgen
data_Pu2Al2Pb
_symmetry_space_group_name_H-M   'P 1'
_cell_length_a   3.27942613
_cell_length_b   4.69247127
_cell_length_c   7.93357120
_cell_angle_alpha   107.21389579
_cell_angle_beta   90.00000000
_cell_angle_gamma   90.00000000
_symmetry_Int_Tables_number   1
_chemical_formula_structural   Pu2Al2Pb
_chemical_formula_sum   'Pu2 Al2 Pb1'
_cell_volume   116.61798185
_cell_formula_units_Z   1
loop_
 _symmetry_equiv_pos_site_id
 _symmetry_equiv_pos_as_xyz
  1  'x, y, z'
loop_
 _atom_site_type_symbol
 _atom_site_label
 _atom_site_symmetry_multiplicity
 _atom_site_fract_x
 _atom_site_fract_y
 _atom_site_fract_z
 _atom_site_occupancy
  Pb  Pb0  1  0.00000000  0.00000000  0.00000000  1
  Al  Al1  1  0.00000000  0.20526037  0.41084459  1
  Al  Al2  1  0.00000000  0.79473963  0.58915541  1
  Pu  Pu3  1  0.50000000  0.61893136  0.23808509  1
  Pu  Pu4  1  0.50000000  0.38106864  0.76191491  1
