# generated using pymatgen
data_Hf(WO4)2
_symmetry_space_group_name_H-M   'P 1'
_cell_length_a   9.28978243
_cell_length_b   9.28978243
_cell_length_c   9.28978243
_cell_angle_alpha   90.00000000
_cell_angle_beta   90.00000000
_cell_angle_gamma   90.00000000
_symmetry_Int_Tables_number   1
_chemical_formula_structural   Hf(WO4)2
_chemical_formula_sum   'Hf4 W8 O32'
_cell_volume   801.70875877
_cell_formula_units_Z   4
loop_
 _symmetry_equiv_pos_site_id
 _symmetry_equiv_pos_as_xyz
  1  'x, y, z'
loop_
 _atom_site_type_symbol
 _atom_site_label
 _atom_site_symmetry_multiplicity
 _atom_site_fract_x
 _atom_site_fract_y
 _atom_site_fract_z
 _atom_site_occupancy
  Hf  Hf0  1  0.74848873  0.24848873  0.25151127  1
  Hf  Hf1  1  0.24848873  0.25151127  0.74848873  1
  Hf  Hf2  1  0.25151127  0.74848873  0.24848873  1
  Hf  Hf3  1  0.75151127  0.75151127  0.75151127  1
  W  W4  1  0.14950610  0.64950610  0.85049390  1
  W  W5  1  0.64950610  0.85049390  0.14950610  1
  W  W6  1  0.85049390  0.14950610  0.64950610  1
  W  W7  1  0.35049390  0.35049390  0.35049390  1
  W  W8  1  0.40555273  0.90555273  0.59444727  1
  W  W9  1  0.90555273  0.59444727  0.40555273  1
  W  W10  1  0.59444727  0.40555273  0.90555273  1
  W  W11  1  0.09444727  0.09444727  0.09444727  1
  O  O12  1  0.26006460  0.76006460  0.73993540  1
  O  O13  1  0.76006460  0.73993540  0.26006460  1
  O  O14  1  0.73993540  0.26006460  0.76006460  1
  O  O15  1  0.23993540  0.23993540  0.23993540  1
  O  O16  1  0.51438435  0.01438435  0.48561565  1
  O  O17  1  0.01438435  0.48561565  0.51438435  1
  O  O18  1  0.48561565  0.51438435  0.01438435  1
  O  O19  1  0.98561565  0.98561565  0.98561565  1
  O  O20  1  0.96121797  0.69488630  0.81835949  1
  O  O21  1  0.18164051  0.46121797  0.80511370  1
  O  O22  1  0.19488630  0.68164051  0.03878203  1
  O  O23  1  0.46121797  0.80511370  0.18164051  1
  O  O24  1  0.68164051  0.03878203  0.19488630  1
  O  O25  1  0.69488630  0.81835949  0.96121797  1
  O  O26  1  0.03878203  0.19488630  0.68164051  1
  O  O27  1  0.81835949  0.96121797  0.69488630  1
  O  O28  1  0.80511370  0.18164051  0.46121797  1
  O  O29  1  0.53878203  0.30511370  0.31835949  1
  O  O30  1  0.31835949  0.53878203  0.30511370  1
  O  O31  1  0.30511370  0.31835949  0.53878203  1
  O  O32  1  0.54660370  0.80222636  0.69085561  1
  O  O33  1  0.30914439  0.04660370  0.69777364  1
  O  O34  1  0.30222636  0.80914439  0.45339630  1
  O  O35  1  0.04660370  0.69777364  0.30914439  1
  O  O36  1  0.80914439  0.45339630  0.30222636  1
  O  O37  1  0.80222636  0.69085561  0.54660370  1
  O  O38  1  0.45339630  0.30222636  0.80914439  1
  O  O39  1  0.69085561  0.54660370  0.80222636  1
  O  O40  1  0.69777364  0.30914439  0.04660370  1
  O  O41  1  0.95339630  0.19777364  0.19085561  1
  O  O42  1  0.19085561  0.95339630  0.19777364  1
  O  O43  1  0.19777364  0.19085561  0.95339630  1
