# generated using pymatgen
data_Dy2Tm3ThS6
_symmetry_space_group_name_H-M   'P 1'
_cell_length_a   3.88591747
_cell_length_b   7.83570447
_cell_length_c   8.73746372
_cell_angle_alpha   103.49664103
_cell_angle_beta   102.84833275
_cell_angle_gamma   90.00000000
_symmetry_Int_Tables_number   1
_chemical_formula_structural   Dy2Tm3ThS6
_chemical_formula_sum   'Dy2 Tm3 Th1 S6'
_cell_volume   251.84343920
_cell_formula_units_Z   1
loop_
 _symmetry_equiv_pos_site_id
 _symmetry_equiv_pos_as_xyz
  1  'x, y, z'
loop_
 _atom_site_type_symbol
 _atom_site_label
 _atom_site_symmetry_multiplicity
 _atom_site_fract_x
 _atom_site_fract_y
 _atom_site_fract_z
 _atom_site_occupancy
  Dy  Dy0  1  0.83594624  0.67120171  0.67189247  1
  Dy  Dy1  1  0.16405376  0.32879829  0.32810753  1
  Tm  Tm2  1  0.50000000  0.50000000  -0.00000000  1
  Tm  Tm3  1  0.83619850  0.16606980  0.67239700  1
  Tm  Tm4  1  0.16380150  0.83393020  0.32760300  1
  Th  Th5  1  0.50000000  0.00000000  0.00000000  1
  S  S6  1  0.32698216  0.91793059  0.65396432  1
  S  S7  1  0.66676213  0.58677399  0.33352526  1
  S  S8  1  0.67301784  0.08206941  0.34603568  1
  S  S9  1  0.99881156  0.26431848  0.99762213  1
  S  S10  1  0.00118844  0.73568152  0.00237787  1
  S  S11  1  0.33323787  0.41322601  0.66647474  1
