# generated using pymatgen
data_InTcN3
_symmetry_space_group_name_H-M   'P 1'
_cell_length_a   5.84397058
_cell_length_b   5.84362242
_cell_length_c   5.84385574
_cell_angle_alpha   55.55277571
_cell_angle_beta   55.55054475
_cell_angle_gamma   55.55174835
_symmetry_Int_Tables_number   1
_chemical_formula_structural   InTcN3
_chemical_formula_sum   'In2 Tc2 N6'
_cell_volume   126.54407243
_cell_formula_units_Z   2
loop_
 _symmetry_equiv_pos_site_id
 _symmetry_equiv_pos_as_xyz
  1  'x, y, z'
loop_
 _atom_site_type_symbol
 _atom_site_label
 _atom_site_symmetry_multiplicity
 _atom_site_fract_x
 _atom_site_fract_y
 _atom_site_fract_z
 _atom_site_occupancy
  N  N0  1  0.76762546  0.14946389  0.39031156  1
  N  N1  1  0.26762180  0.89028207  0.64942524  1
  N  N2  1  0.64942207  0.26763594  0.89030968  1
  N  N3  1  0.14941671  0.39027823  0.76762192  1
  N  N4  1  0.89033346  0.64946878  0.26762047  1
  N  N5  1  0.39033914  0.76763054  0.14943606  1
  Tc  Tc6  1  0.48268638  0.48271982  0.48273074  1
  Tc  Tc7  1  0.98270542  0.98275043  0.98267984  1
  In  In8  1  0.20984413  0.20988305  0.20986344  1
  In  In9  1  0.70985510  0.70988824  0.70984871  1
