# generated using pymatgen
data_BAsC2
_symmetry_space_group_name_H-M   'P 1'
_cell_length_a   2.57603349
_cell_length_b   3.45825099
_cell_length_c   10.43220485
_cell_angle_alpha   90.00000000
_cell_angle_beta   90.00000000
_cell_angle_gamma   90.00000000
_symmetry_Int_Tables_number   1
_chemical_formula_structural   BAsC2
_chemical_formula_sum   'B2 As2 C4'
_cell_volume   92.93603099
_cell_formula_units_Z   2
loop_
 _symmetry_equiv_pos_site_id
 _symmetry_equiv_pos_as_xyz
  1  'x, y, z'
loop_
 _atom_site_type_symbol
 _atom_site_label
 _atom_site_symmetry_multiplicity
 _atom_site_fract_x
 _atom_site_fract_y
 _atom_site_fract_z
 _atom_site_occupancy
  As  As0  1  0.00000000  0.00000000  0.19204249  1
  As  As1  1  0.50000000  0.50000000  0.69204249  1
  B  B2  1  0.00000000  0.50000000  0.09228421  1
  B  B3  1  0.50000000  0.00000000  0.59228421  1
  C  C4  1  0.00000000  0.50000000  0.94222817  1
  C  C5  1  0.50000000  0.00000000  0.44222817  1
  C  C6  1  0.00000000  0.00000000  0.38134513  1
  C  C7  1  0.50000000  0.50000000  0.88134513  1
