# generated using pymatgen
data_Ho(AgHg)2
_symmetry_space_group_name_H-M   'P 1'
_cell_length_a   4.90120998
_cell_length_b   4.90120997
_cell_length_c   5.66379938
_cell_angle_alpha   68.04939851
_cell_angle_beta   68.04939849
_cell_angle_gamma   61.71463463
_symmetry_Int_Tables_number   1
_chemical_formula_structural   Ho(AgHg)2
_chemical_formula_sum   'Ho1 Ag2 Hg2'
_cell_volume   107.85459387
_cell_formula_units_Z   1
loop_
 _symmetry_equiv_pos_site_id
 _symmetry_equiv_pos_as_xyz
  1  'x, y, z'
loop_
 _atom_site_type_symbol
 _atom_site_label
 _atom_site_symmetry_multiplicity
 _atom_site_fract_x
 _atom_site_fract_y
 _atom_site_fract_z
 _atom_site_occupancy
  Ho  Ho0  1  0.00000000  0.50000000  0.00000000  1
  Ag  Ag1  1  0.20673847  0.70673846  0.38781126  1
  Ag  Ag2  1  0.79326153  0.29326154  0.61218874  1
  Hg  Hg3  1  0.59933717  0.09933717  0.21982800  1
  Hg  Hg4  1  0.40066283  0.90066283  0.78017200  1
