# generated using pymatgen
data_Ce2Pr(AgHg)2
_symmetry_space_group_name_H-M   'P 1'
_cell_length_a   4.90342427
_cell_length_b   4.90342426
_cell_length_c   8.80886063
_cell_angle_alpha   73.83983395
_cell_angle_beta   73.83983396
_cell_angle_gamma   60.00000003
_symmetry_Int_Tables_number   1
_chemical_formula_structural   Ce2Pr(AgHg)2
_chemical_formula_sum   'Ce2 Pr1 Ag2 Hg2'
_cell_volume   173.69066463
_cell_formula_units_Z   1
loop_
 _symmetry_equiv_pos_site_id
 _symmetry_equiv_pos_as_xyz
  1  'x, y, z'
loop_
 _atom_site_type_symbol
 _atom_site_label
 _atom_site_symmetry_multiplicity
 _atom_site_fract_x
 _atom_site_fract_y
 _atom_site_fract_z
 _atom_site_occupancy
  Ce  Ce0  1  0.14095578  0.14095578  0.57713365  1
  Ce  Ce1  1  0.85904422  0.85904422  0.42286635  1
  Pr  Pr2  1  0.00000000  0.00000000  0.00000000  1
  Ag  Ag3  1  0.57781305  0.57781305  0.26656084  1
  Ag  Ag4  1  0.42218695  0.42218695  0.73343916  1
  Hg  Hg5  1  0.73103928  0.73103928  0.80688315  1
  Hg  Hg6  1  0.26896072  0.26896072  0.19311685  1
