# generated using pymatgen
data_Li(HfPb)2
_symmetry_space_group_name_H-M   'P 1'
_cell_length_a   8.74328508
_cell_length_b   8.74328508
_cell_length_c   3.28409982
_cell_angle_alpha   90.00000000
_cell_angle_beta   90.00000000
_cell_angle_gamma   90.00000000
_symmetry_Int_Tables_number   1
_chemical_formula_structural   Li(HfPb)2
_chemical_formula_sum   'Li2 Hf4 Pb4'
_cell_volume   251.05312237
_cell_formula_units_Z   2
loop_
 _symmetry_equiv_pos_site_id
 _symmetry_equiv_pos_as_xyz
  1  'x, y, z'
loop_
 _atom_site_type_symbol
 _atom_site_label
 _atom_site_symmetry_multiplicity
 _atom_site_fract_x
 _atom_site_fract_y
 _atom_site_fract_z
 _atom_site_occupancy
  Pb  Pb0  1  0.17429514  0.67429514  0.50000000  1
  Pb  Pb1  1  0.67429514  0.82570486  0.50000000  1
  Pb  Pb2  1  0.82570486  0.32570486  0.50000000  1
  Pb  Pb3  1  0.32570486  0.17429514  0.50000000  1
  Hf  Hf4  1  0.37804688  0.87804688  0.00000000  1
  Hf  Hf5  1  0.87804688  0.62195312  0.00000000  1
  Hf  Hf6  1  0.62195312  0.12195312  0.00000000  1
  Hf  Hf7  1  0.12195312  0.37804688  0.00000000  1
  Li  Li8  1  0.00000000  0.00000000  0.00000000  1
  Li  Li9  1  0.50000000  0.50000000  0.00000000  1
