# generated using pymatgen
data_RbNbCuSeS2
_symmetry_space_group_name_H-M   'P 1'
_cell_length_a   7.97619335
_cell_length_b   7.97619335
_cell_length_c   9.82547237
_cell_angle_alpha   90.00000000
_cell_angle_beta   90.00000000
_cell_angle_gamma   153.75940531
_symmetry_Int_Tables_number   1
_chemical_formula_structural   RbNbCuSeS2
_chemical_formula_sum   'Rb2 Nb2 Cu2 Se2 S4'
_cell_volume   276.37962597
_cell_formula_units_Z   2
loop_
 _symmetry_equiv_pos_site_id
 _symmetry_equiv_pos_as_xyz
  1  'x, y, z'
loop_
 _atom_site_type_symbol
 _atom_site_label
 _atom_site_symmetry_multiplicity
 _atom_site_fract_x
 _atom_site_fract_y
 _atom_site_fract_z
 _atom_site_occupancy
  Cu  Cu0  1  0.03302688  0.96697499  0.25000019  1
  Cu  Cu1  1  0.96697499  0.03302688  0.74999956  1
  Nb  Nb2  1  0.50000094  0.50000094  0.00000000  1
  Nb  Nb3  1  0.50000094  0.50000094  0.50000039  1
  Rb  Rb4  1  0.74018694  0.25981493  0.25000019  1
  Rb  Rb5  1  0.25981493  0.74018694  0.74999956  1
  S  S6  1  0.10941997  0.89058190  0.05413175  1
  S  S7  1  0.10941997  0.89058190  0.44586864  1
  S  S8  1  0.89058190  0.10941997  0.55413112  1
  S  S9  1  0.89058190  0.10941997  0.94586903  1
  Se  Se10  1  0.42793522  0.57206665  0.25000019  1
  Se  Se11  1  0.57206665  0.42793522  0.74999956  1
