# generated using pymatgen
data_Zr2GeRu2
_symmetry_space_group_name_H-M   'P 1'
_cell_length_a   6.40535812
_cell_length_b   6.40535812
_cell_length_c   4.40322313
_cell_angle_alpha   90.00000000
_cell_angle_beta   90.00000000
_cell_angle_gamma   90.00000000
_symmetry_Int_Tables_number   1
_chemical_formula_structural   Zr2GeRu2
_chemical_formula_sum   'Zr4 Ge2 Ru4'
_cell_volume   180.65813619
_cell_formula_units_Z   2
loop_
 _symmetry_equiv_pos_site_id
 _symmetry_equiv_pos_as_xyz
  1  'x, y, z'
loop_
 _atom_site_type_symbol
 _atom_site_label
 _atom_site_symmetry_multiplicity
 _atom_site_fract_x
 _atom_site_fract_y
 _atom_site_fract_z
 _atom_site_occupancy
  Ru  Ru0  1  0.36021142  0.86021142  0.00000000  1
  Ru  Ru1  1  0.86021142  0.63978858  0.00000000  1
  Ru  Ru2  1  0.63978858  0.13978858  0.00000000  1
  Ru  Ru3  1  0.13978858  0.36021142  0.00000000  1
  Ge  Ge4  1  0.00000000  0.00000000  0.00000000  1
  Ge  Ge5  1  0.50000000  0.50000000  0.00000000  1
  Zr  Zr6  1  0.17775193  0.67775193  0.50000000  1
  Zr  Zr7  1  0.67775193  0.82224807  0.50000000  1
  Zr  Zr8  1  0.82224807  0.32224807  0.50000000  1
  Zr  Zr9  1  0.32224807  0.17775193  0.50000000  1
