# generated using pymatgen
data_Ba3NpS5
_symmetry_space_group_name_H-M   'P 1'
_cell_length_a   8.57531072
_cell_length_b   8.57531072
_cell_length_c   9.69558978
_cell_angle_alpha   116.24608393
_cell_angle_beta   116.24608393
_cell_angle_gamma   90.00000000
_symmetry_Int_Tables_number   1
_chemical_formula_structural   Ba3NpS5
_chemical_formula_sum   'Ba6 Np2 S10'
_cell_volume   556.33477267
_cell_formula_units_Z   2
loop_
 _symmetry_equiv_pos_site_id
 _symmetry_equiv_pos_as_xyz
  1  'x, y, z'
loop_
 _atom_site_type_symbol
 _atom_site_label
 _atom_site_symmetry_multiplicity
 _atom_site_fract_x
 _atom_site_fract_y
 _atom_site_fract_z
 _atom_site_occupancy
  Ba  Ba0  1  0.66221895  0.16221895  0.00000000  1
  Ba  Ba1  1  0.33778105  0.83778205  1.00000000  1
  Ba  Ba2  1  0.83778105  0.66221895  1.00000000  1
  Ba  Ba3  1  0.16221895  0.33778105  0.00000000  1
  Ba  Ba4  1  0.25000000  0.25000000  0.50000000  1
  Ba  Ba5  1  0.75000000  0.75000000  0.50000000  1
  Np  Np6  1  0.75000000  0.25000000  0.50000000  1
  Np  Np7  1  0.25000000  0.75000000  0.50000000  1
  S  S8  1  0.01586587  0.51586587  0.70935585  1
  S  S9  1  0.69348998  0.19348998  0.70935585  1
  S  S10  1  0.19348998  0.01586587  0.70935585  1
  S  S11  1  0.51586587  0.69348998  0.70935585  1
  S  S12  1  0.98413413  0.48413413  0.29064415  1
  S  S13  1  0.30651002  0.80651002  0.29064415  1
  S  S14  1  0.80651002  0.98413413  0.29064415  1
  S  S15  1  0.48413413  0.30651002  0.29064415  1
  S  S16  1  0.50000000  0.50000000  0.00000000  1
  S  S17  1  0.00000000  0.00000000  0.00000000  1
