# generated using pymatgen
data_AcSm3Cu4
_symmetry_space_group_name_H-M   'P 1'
_cell_length_a   5.12059204
_cell_length_b   7.18047764
_cell_length_c   10.23475036
_cell_angle_alpha   90.00000000
_cell_angle_beta   90.00000000
_cell_angle_gamma   90.00000000
_symmetry_Int_Tables_number   1
_chemical_formula_structural   AcSm3Cu4
_chemical_formula_sum   'Ac2 Sm6 Cu8'
_cell_volume   376.31433734
_cell_formula_units_Z   2
loop_
 _symmetry_equiv_pos_site_id
 _symmetry_equiv_pos_as_xyz
  1  'x, y, z'
loop_
 _atom_site_type_symbol
 _atom_site_label
 _atom_site_symmetry_multiplicity
 _atom_site_fract_x
 _atom_site_fract_y
 _atom_site_fract_z
 _atom_site_occupancy
  Ac  Ac0  1  0.00000000  0.50000000  0.00000000  1
  Ac  Ac1  1  0.00000000  0.50000000  0.50000000  1
  Cu  Cu2  1  0.50000000  0.76806456  0.00000000  1
  Cu  Cu3  1  0.50000000  0.76806456  0.50000000  1
  Cu  Cu4  1  0.50000000  0.23193544  0.00000000  1
  Cu  Cu5  1  0.50000000  0.23193544  0.50000000  1
  Cu  Cu6  1  0.00035548  0.76791134  0.75000000  1
  Cu  Cu7  1  0.99964452  0.76791134  0.25000000  1
  Cu  Cu8  1  0.99964452  0.23208866  0.25000000  1
  Cu  Cu9  1  0.00035548  0.23208866  0.75000000  1
  Sm  Sm10  1  0.00000000  0.00000000  0.00000000  1
  Sm  Sm11  1  0.00000000  0.00000000  0.50000000  1
  Sm  Sm12  1  0.50027652  0.00000000  0.75000000  1
  Sm  Sm13  1  0.49972348  0.00000000  0.25000000  1
  Sm  Sm14  1  0.50028144  0.50000000  0.75000000  1
  Sm  Sm15  1  0.49971856  0.50000000  0.25000000  1
