# generated using pymatgen
data_TmCdPt
_symmetry_space_group_name_H-M   'P 1'
_cell_length_a   7.13966647
_cell_length_b   4.05856726
_cell_length_c   8.79391514
_cell_angle_alpha   90.00000000
_cell_angle_beta   90.00000000
_cell_angle_gamma   90.00000000
_symmetry_Int_Tables_number   1
_chemical_formula_structural   TmCdPt
_chemical_formula_sum   'Tm4 Cd4 Pt4'
_cell_volume   254.81966615
_cell_formula_units_Z   4
loop_
 _symmetry_equiv_pos_site_id
 _symmetry_equiv_pos_as_xyz
  1  'x, y, z'
loop_
 _atom_site_type_symbol
 _atom_site_label
 _atom_site_symmetry_multiplicity
 _atom_site_fract_x
 _atom_site_fract_y
 _atom_site_fract_z
 _atom_site_occupancy
  Cd  Cd0  1  0.86785146  0.24999955  0.05975609  1
  Cd  Cd1  1  0.36785192  0.24999955  0.44024418  1
  Cd  Cd2  1  0.63214858  0.75000112  0.55975637  1
  Cd  Cd3  1  0.13214903  0.75000112  0.94024446  1
  Pt  Pt4  1  0.27501425  0.24999955  0.13295784  1
  Pt  Pt5  1  0.77501379  0.24999955  0.36704243  1
  Pt  Pt6  1  0.22498530  0.75000112  0.63295812  1
  Pt  Pt7  1  0.72498625  0.75000112  0.86704271  1
  Tm  Tm8  1  0.55391943  0.75000112  0.17938881  1
  Tm  Tm9  1  0.05391989  0.75000112  0.32061146  1
  Tm  Tm10  1  0.94608061  0.24999955  0.67938909  1
  Tm  Tm11  1  0.44608106  0.24999955  0.82061174  1
