# generated using pymatgen
data_TlFeI3
_symmetry_space_group_name_H-M   'P 1'
_cell_length_a   4.35072207
_cell_length_b   15.73502199
_cell_length_c   19.21769840
_cell_angle_alpha   90.00000000
_cell_angle_beta   90.00000000
_cell_angle_gamma   89.99994497
_symmetry_Int_Tables_number   1
_chemical_formula_structural   TlFeI3
_chemical_formula_sum   'Tl2 Fe2 I6'
_cell_volume   1315.61879251
_cell_formula_units_Z   2
loop_
 _symmetry_equiv_pos_site_id
 _symmetry_equiv_pos_as_xyz
  1  'x, y, z'
loop_
 _atom_site_type_symbol
 _atom_site_label
 _atom_site_symmetry_multiplicity
 _atom_site_fract_x
 _atom_site_fract_y
 _atom_site_fract_z
 _atom_site_occupancy
  Tl  Tl0  1  0.75015447  0.13795927  0.50000001  1
  Tl  Tl1  1  0.24984541  0.63796051  0.50000000  1
  Fe  Fe2  1  0.25034544  0.93322128  0.50000000  1
  Fe  Fe3  1  0.74965546  0.43322252  0.50000001  1
  I  I4  1  0.25067971  0.02892412  0.60973474  1
  I  I5  1  0.74931881  0.52892592  0.39026554  1
  I  I6  1  0.74931877  0.52892589  0.60973445  1
  I  I7  1  0.25067962  0.02892411  0.39026525  1
  I  I8  1  0.24964049  0.33441350  0.50000001  1
  I  I9  1  0.75036184  0.83441291  0.50000001  1
