# generated using pymatgen
data_TlZnBi
_symmetry_space_group_name_H-M   'P 1'
_cell_length_a   4.94152771
_cell_length_b   8.41529498
_cell_length_c   8.18732098
_cell_angle_alpha   90.00000000
_cell_angle_beta   90.00000000
_cell_angle_gamma   90.00000000
_symmetry_Int_Tables_number   1
_chemical_formula_structural   TlZnBi
_chemical_formula_sum   'Tl4 Zn4 Bi4'
_cell_volume   340.46493971
_cell_formula_units_Z   4
loop_
 _symmetry_equiv_pos_site_id
 _symmetry_equiv_pos_as_xyz
  1  'x, y, z'
loop_
 _atom_site_type_symbol
 _atom_site_label
 _atom_site_symmetry_multiplicity
 _atom_site_fract_x
 _atom_site_fract_y
 _atom_site_fract_z
 _atom_site_occupancy
  Zn  Zn0  1  0.25000000  0.66394409  0.90505758  1
  Zn  Zn1  1  0.75000000  0.83605591  0.40505758  1
  Zn  Zn2  1  0.25000000  0.16394409  0.59494242  1
  Zn  Zn3  1  0.75000000  0.33605591  0.09494242  1
  Tl  Tl4  1  0.75000000  0.01372852  0.82097191  1
  Tl  Tl5  1  0.25000000  0.98627148  0.17902809  1
  Tl  Tl6  1  0.75000000  0.51372852  0.67902809  1
  Tl  Tl7  1  0.25000000  0.48627148  0.32097191  1
  Bi  Bi8  1  0.75000000  0.69031954  0.08829280  1
  Bi  Bi9  1  0.25000000  0.80968046  0.58829280  1
  Bi  Bi10  1  0.75000000  0.19031954  0.41170720  1
  Bi  Bi11  1  0.25000000  0.30968046  0.91170720  1
