# generated using pymatgen
data_SbAuO3
_symmetry_space_group_name_H-M   'P 1'
_cell_length_a   5.35206827
_cell_length_b   5.35206827
_cell_length_c   6.52391043
_cell_angle_alpha   98.13110468
_cell_angle_beta   98.13110468
_cell_angle_gamma   119.22182720
_symmetry_Int_Tables_number   1
_chemical_formula_structural   SbAuO3
_chemical_formula_sum   'Sb2 Au2 O6'
_cell_volume   156.58813432
_cell_formula_units_Z   2
loop_
 _symmetry_equiv_pos_site_id
 _symmetry_equiv_pos_as_xyz
  1  'x, y, z'
loop_
 _atom_site_type_symbol
 _atom_site_label
 _atom_site_symmetry_multiplicity
 _atom_site_fract_x
 _atom_site_fract_y
 _atom_site_fract_z
 _atom_site_occupancy
  Au  Au0  1  0.67868244  0.32131833  0.00000000  1
  Au  Au1  1  0.32131833  0.67868244  0.00000000  1
  O  O2  1  0.05291502  0.05291502  0.31330724  1
  O  O3  1  0.80993974  0.43853110  0.32958989  1
  O  O4  1  0.43853110  0.80993974  0.32958989  1
  O  O5  1  0.56146837  0.19005974  0.67040952  1
  O  O6  1  0.19005974  0.56146837  0.67040952  1
  O  O7  1  0.94708445  0.94708445  0.68669217  1
  Sb  Sb8  1  0.84015368  0.15984579  0.49999971  1
  Sb  Sb9  1  0.15984579  0.84015368  0.49999971  1
