# generated using pymatgen
data_PrNdS2
_symmetry_space_group_name_H-M   'P 1'
_cell_length_a   7.08697262
_cell_length_b   7.08697262
_cell_length_c   7.08697262
_cell_angle_alpha   33.43077106
_cell_angle_beta   33.43077106
_cell_angle_gamma   33.43077107
_symmetry_Int_Tables_number   1
_chemical_formula_structural   PrNdS2
_chemical_formula_sum   'Pr1 Nd1 S2'
_cell_volume   96.21134364
_cell_formula_units_Z   1
loop_
 _symmetry_equiv_pos_site_id
 _symmetry_equiv_pos_as_xyz
  1  'x, y, z'
loop_
 _atom_site_type_symbol
 _atom_site_label
 _atom_site_symmetry_multiplicity
 _atom_site_fract_x
 _atom_site_fract_y
 _atom_site_fract_z
 _atom_site_occupancy
  Nd  Nd0  1  0.49999988  0.49999988  0.49999988  1
  Pr  Pr1  1  0.00000000  0.00000000  0.00000000  1
  S  S2  1  0.24897496  0.24897496  0.24897496  1
  S  S3  1  0.75102479  0.75102479  0.75102479  1
