# generated using pymatgen
data_Na2NiTeO4
_symmetry_space_group_name_H-M   'P 1'
_cell_length_a   5.81003154
_cell_length_b   5.54300400
_cell_length_c   4.81191460
_cell_angle_alpha   115.12101492
_cell_angle_beta   117.29886654
_cell_angle_gamma   104.50320119
_symmetry_Int_Tables_number   1
_chemical_formula_structural   Na2NiTeO4
_chemical_formula_sum   'Na2 Ni1 Te1 O4'
_cell_volume   103.86216640
_cell_formula_units_Z   1
loop_
 _symmetry_equiv_pos_site_id
 _symmetry_equiv_pos_as_xyz
  1  'x, y, z'
loop_
 _atom_site_type_symbol
 _atom_site_label
 _atom_site_symmetry_multiplicity
 _atom_site_fract_x
 _atom_site_fract_y
 _atom_site_fract_z
 _atom_site_occupancy
  Na  Na0  1  0.44028687  0.94044875  0.88067615  1
  Na  Na1  1  0.18725243  0.18726502  0.37446504  1
  Ni  Ni2  1  0.96373519  0.46363372  0.92696088  1
  Te  Te3  1  0.68565849  0.68558490  0.37128386  1
  O  O4  1  0.70871744  0.64834200  0.76597538  1
  O  O5  1  0.93427118  0.47292601  0.34519681  1
  O  O6  1  0.41058534  0.87178755  0.34448091  1
  O  O7  1  0.05654606  0.11706205  0.76506296  1
