# generated using pymatgen
data_KTaAsO
_symmetry_space_group_name_H-M   'P 1'
_cell_length_a   3.66915550
_cell_length_b   3.66915550
_cell_length_c   9.95407908
_cell_angle_alpha   90.00000000
_cell_angle_beta   90.00000000
_cell_angle_gamma   90.00000000
_symmetry_Int_Tables_number   1
_chemical_formula_structural   KTaAsO
_chemical_formula_sum   'K2 Ta2 As2 O2'
_cell_volume   134.00880076
_cell_formula_units_Z   2
loop_
 _symmetry_equiv_pos_site_id
 _symmetry_equiv_pos_as_xyz
  1  'x, y, z'
loop_
 _atom_site_type_symbol
 _atom_site_label
 _atom_site_symmetry_multiplicity
 _atom_site_fract_x
 _atom_site_fract_y
 _atom_site_fract_z
 _atom_site_occupancy
  As  As0  1  0.00000000  0.50000061  0.24707057  1
  As  As1  1  0.50000061  0.00000000  0.75292952  1
  K  K2  1  0.00000000  0.00000000  0.50000005  1
  K  K3  1  0.50000061  0.50000061  0.50000005  1
  O  O4  1  0.00000000  0.00000000  0.00000000  1
  O  O5  1  0.50000061  0.50000061  0.00000000  1
  Ta  Ta6  1  0.50000061  0.00000000  0.12009047  1
  Ta  Ta7  1  0.00000000  0.50000061  0.87990963  1
