# generated using pymatgen
data_Ba(Mo3O5)2
_symmetry_space_group_name_H-M   'P 1'
_cell_length_a   9.43004753
_cell_length_b   9.72376735
_cell_length_c   10.82641646
_cell_angle_alpha   90.20089358
_cell_angle_beta   89.85169224
_cell_angle_gamma   89.85911477
_symmetry_Int_Tables_number   1
_chemical_formula_structural   Ba(Mo3O5)2
_chemical_formula_sum   'Ba4 Mo24 O40'
_cell_volume   992.72217560
_cell_formula_units_Z   4
loop_
 _symmetry_equiv_pos_site_id
 _symmetry_equiv_pos_as_xyz
  1  'x, y, z'
loop_
 _atom_site_type_symbol
 _atom_site_label
 _atom_site_symmetry_multiplicity
 _atom_site_fract_x
 _atom_site_fract_y
 _atom_site_fract_z
 _atom_site_occupancy
  Ba  Ba0  1  0.25811583  0.01811548  0.90377133  1
  Ba  Ba1  1  0.74346210  0.97791515  0.08660831  1
  Ba  Ba2  1  0.74234170  0.52058303  0.59931681  1
  Ba  Ba3  1  0.25930393  0.47621050  0.40540260  1
  Mo  Mo4  1  0.57918976  0.86961450  0.72015050  1
  Mo  Mo5  1  0.07576458  0.13800390  0.27384201  1
  Mo  Mo6  1  0.42022902  0.36988726  0.77992597  1
  Mo  Mo7  1  0.91830973  0.62954791  0.22301045  1
  Mo  Mo8  1  0.42323469  0.13079830  0.28202853  1
  Mo  Mo9  1  0.92259042  0.86862699  0.72016751  1
  Mo  Mo10  1  0.57783579  0.62891364  0.21819528  1
  Mo  Mo11  1  0.07549472  0.36631390  0.77565259  1
  Mo  Mo12  1  0.25909048  0.86208237  0.20151369  1
  Mo  Mo13  1  0.74865407  0.13693693  0.80148017  1
  Mo  Mo14  1  0.74560389  0.36063935  0.30000884  1
  Mo  Mo15  1  0.25055274  0.64143588  0.70402938  1
  Mo  Mo16  1  0.58573056  0.14542290  0.54482635  1
  Mo  Mo17  1  0.08566175  0.85208512  0.45493632  1
  Mo  Mo18  1  0.41539051  0.64425830  0.95655927  1
  Mo  Mo19  1  0.91424935  0.35840023  0.04232970  1
  Mo  Mo20  1  0.41824660  0.85777431  0.45774698  1
  Mo  Mo21  1  0.91687894  0.14208713  0.54198327  1
  Mo  Mo22  1  0.58274471  0.35539125  0.04292328  1
  Mo  Mo23  1  0.08407160  0.64485284  0.95761324  1
  Mo  Mo24  1  0.25303245  0.12481376  0.55179809  1
  Mo  Mo25  1  0.75199055  0.87324321  0.44621639  1
  Mo  Mo26  1  0.74880874  0.62548239  0.94545593  1
  Mo  Mo27  1  0.24974679  0.37666632  0.05287588  1
  O  O28  1  0.59735101  0.01436215  0.86337287  1
  O  O29  1  0.09686771  0.98797640  0.15372379  1
  O  O30  1  0.38968778  0.51044453  0.63380247  1
  O  O31  1  0.91380705  0.48611143  0.34992492  1
  O  O32  1  0.40154179  0.98725547  0.13715467  1
  O  O33  1  0.90124668  0.01341151  0.86286182  1
  O  O34  1  0.60588859  0.48993785  0.36523335  1
  O  O35  1  0.08619195  0.51347336  0.65326738  1
  O  O36  1  0.24204292  0.74524669  0.53250040  1
  O  O37  1  0.75264563  0.26641361  0.47181445  1
  O  O38  1  0.75016196  0.23454521  0.97301191  1
  O  O39  1  0.24938973  0.76836891  0.02994509  1
  O  O40  1  0.57322746  0.00147313  0.38520792  1
  O  O41  1  0.07647449  0.99230910  0.60650905  1
  O  O42  1  0.42626126  0.50264903  0.11609280  1
  O  O43  1  0.92843501  0.49634668  0.88403270  1
  O  O44  1  0.59912695  0.23945227  0.20970317  1
  O  O45  1  0.42812364  -0.00029474  0.61545156  1
  O  O46  1  0.57114601  0.49728679  0.88429130  1
  O  O47  1  0.06867508  0.50555311  0.11805964  1
  O  O48  1  0.24086161  0.24574493  0.71438036  1
  O  O49  1  0.75749190  0.74869201  0.28424695  1
  O  O50  1  0.75119810  0.74354319  0.78328200  1
  O  O51  1  0.24592415  0.25720688  0.21581967  1
  O  O52  1  0.40159504  0.76070467  0.79071793  1
  O  O53  1  0.90806303  0.23919342  0.20773718  1
  O  O54  1  0.59915384  0.26395993  0.70874928  1
  O  O55  1  0.08745812  0.74637938  0.29596246  1
  O  O56  1  0.08915745  0.27424893  0.94961377  1
  O  O57  1  0.58943140  0.73640615  0.04308032  1
  O  O58  1  0.91388424  0.76158734  0.53915368  1
  O  O59  1  0.41060643  0.23900508  0.45776489  1
  O  O60  1  0.90899705  0.72869612  0.05054796  1
  O  O61  1  0.40747874  0.26344614  0.95732803  1
  O  O62  1  0.09206659  0.22543717  0.44663702  1
  O  O63  1  0.59209323  0.76352419  0.54075367  1
  O  O64  1  0.90734800  0.25912307  0.70690816  1
  O  O65  1  0.39965428  0.73632167  0.29340884  1
  O  O66  1  0.09652544  0.76055542  0.79321239  1
  O  O67  1  0.93638865  -0.00219707  0.38436251  1
