# generated using pymatgen
data_Tb3(PuCo2)2
_symmetry_space_group_name_H-M   'P 1'
_cell_length_a   3.96238252
_cell_length_b   5.77014429
_cell_length_c   8.64934268
_cell_angle_alpha   100.84450537
_cell_angle_beta   90.00000000
_cell_angle_gamma   110.08123532
_symmetry_Int_Tables_number   1
_chemical_formula_structural   Tb3(PuCo2)2
_chemical_formula_sum   'Tb3 Pu2 Co4'
_cell_volume   181.96748472
_cell_formula_units_Z   1
loop_
 _symmetry_equiv_pos_site_id
 _symmetry_equiv_pos_as_xyz
  1  'x, y, z'
loop_
 _atom_site_type_symbol
 _atom_site_label
 _atom_site_symmetry_multiplicity
 _atom_site_fract_x
 _atom_site_fract_y
 _atom_site_fract_z
 _atom_site_occupancy
  Tb  Tb0  1  0.37733636  0.75467272  0.61559604  1
  Tb  Tb1  1  0.00000000  0.00000000  0.00000000  1
  Tb  Tb2  1  0.62266364  0.24532728  0.38440396  1
  Pu  Pu3  1  0.32173436  0.64346873  0.21699027  1
  Pu  Pu4  1  0.67826564  0.35653127  0.78300973  1
  Co  Co5  1  0.71170183  0.42340267  0.08548570  1
  Co  Co6  1  0.08568065  0.17136031  0.62353668  1
  Co  Co7  1  0.91431935  0.82863969  0.37646332  1
  Co  Co8  1  0.28829817  0.57659733  0.91451430  1
