# generated using pymatgen
data_Zn2Si2Ge
_symmetry_space_group_name_H-M   'P 1'
_cell_length_a   4.05014940
_cell_length_b   4.05014940
_cell_length_c   6.05728973
_cell_angle_alpha   70.46879116
_cell_angle_beta   70.46879116
_cell_angle_gamma   90.00000000
_symmetry_Int_Tables_number   1
_chemical_formula_structural   Zn2Si2Ge
_chemical_formula_sum   'Zn2 Si2 Ge1'
_cell_volume   87.55479922
_cell_formula_units_Z   1
loop_
 _symmetry_equiv_pos_site_id
 _symmetry_equiv_pos_as_xyz
  1  'x, y, z'
loop_
 _atom_site_type_symbol
 _atom_site_label
 _atom_site_symmetry_multiplicity
 _atom_site_fract_x
 _atom_site_fract_y
 _atom_site_fract_z
 _atom_site_occupancy
  Ge  Ge0  1  0.00000000  0.00000000  0.00000000  1
  Si  Si1  1  0.39183631  0.39183631  0.21632738  1
  Si  Si2  1  0.60816369  0.60816369  0.78367262  1
  Zn  Zn3  1  0.75000000  0.25000000  0.50000000  1
  Zn  Zn4  1  0.25000000  0.75000000  0.50000000  1
