# generated using pymatgen
data_Cu(AgI2)2
_symmetry_space_group_name_H-M   'P 1'
_cell_length_a   6.30041511
_cell_length_b   6.30041511
_cell_length_c   18.46693001
_cell_angle_alpha   90.00000000
_cell_angle_beta   90.00000000
_cell_angle_gamma   90.00000000
_symmetry_Int_Tables_number   1
_chemical_formula_structural   Cu(AgI2)2
_chemical_formula_sum   'Cu1 Ag2 I4'
_cell_volume   733.04904445
_cell_formula_units_Z   1
loop_
 _symmetry_equiv_pos_site_id
 _symmetry_equiv_pos_as_xyz
  1  'x, y, z'
loop_
 _atom_site_type_symbol
 _atom_site_label
 _atom_site_symmetry_multiplicity
 _atom_site_fract_x
 _atom_site_fract_y
 _atom_site_fract_z
 _atom_site_occupancy
  I  I0  1  0.22840331  0.77159670  0.40613139  1
  I  I1  1  0.77159670  0.22840331  0.40613139  1
  I  I2  1  0.77159668  0.77159669  0.59386861  1
  I  I3  1  0.22840332  0.22840332  0.59386861  1
  Cu  Cu4  1  0.00000000  0.00000000  0.50000000  1
  Ag  Ag5  1  0.00000000  0.50000000  0.50000000  1
  Ag  Ag6  1  0.50000000  0.00000000  0.50000000  1
