# generated using pymatgen
data_Er4GaPb
_symmetry_space_group_name_H-M   'P 1'
_cell_length_a   9.80557885
_cell_length_b   9.80557843
_cell_length_c   9.80557891
_cell_angle_alpha   60.00000179
_cell_angle_beta   60.00000321
_cell_angle_gamma   60.00000070
_symmetry_Int_Tables_number   1
_chemical_formula_structural   Er4GaPb
_chemical_formula_sum   'Er16 Ga4 Pb4'
_cell_volume   666.66048541
_cell_formula_units_Z   4
loop_
 _symmetry_equiv_pos_site_id
 _symmetry_equiv_pos_as_xyz
  1  'x, y, z'
loop_
 _atom_site_type_symbol
 _atom_site_label
 _atom_site_symmetry_multiplicity
 _atom_site_fract_x
 _atom_site_fract_y
 _atom_site_fract_z
 _atom_site_occupancy
  Er  Er0  1  0.36050338  0.36050338  0.36050338  1
  Er  Er1  1  0.91849087  0.36050338  0.36050338  1
  Er  Er2  1  0.36050338  0.91848987  0.36050338  1
  Er  Er3  1  0.36050338  0.36050338  0.91848987  1
  Er  Er4  1  0.55927151  0.55927151  0.94072849  1
  Er  Er5  1  0.94072849  0.94072849  0.55927151  1
  Er  Er6  1  0.55927151  0.94072849  0.55927151  1
  Er  Er7  1  0.94072849  0.55927151  0.94072849  1
  Er  Er8  1  0.94072849  0.55927151  0.55927151  1
  Er  Er9  1  0.55927151  0.94072849  0.94072849  1
  Er  Er10  1  0.18937184  0.18937084  0.81062916  1
  Er  Er11  1  0.81062916  0.81062916  0.18937084  1
  Er  Er12  1  0.18937184  0.81062916  0.18937084  1
  Er  Er13  1  0.81062916  0.18937084  0.81062916  1
  Er  Er14  1  0.81062916  0.18937084  0.18937084  1
  Er  Er15  1  0.18937184  0.81062916  0.81062916  1
  Ga  Ga16  1  0.14485334  0.14485334  0.14485334  1
  Ga  Ga17  1  0.56543998  0.14485334  0.14485334  1
  Ga  Ga18  1  0.14485334  0.56543998  0.14485334  1
  Ga  Ga19  1  0.14485334  0.14485334  0.56543998  1
  Pb  Pb20  1  0.59323841  0.59323841  0.59323841  1
  Pb  Pb21  1  0.22028477  0.59323841  0.59323841  1
  Pb  Pb22  1  0.59323841  0.22028477  0.59323841  1
  Pb  Pb23  1  0.59323841  0.59323841  0.22028477  1
