# generated using pymatgen
data_Zr2US6
_symmetry_space_group_name_H-M   'P 1'
_cell_length_a   4.74590839
_cell_length_b   6.98015048
_cell_length_c   7.59928708
_cell_angle_alpha   74.02917699
_cell_angle_beta   71.80451202
_cell_angle_gamma   70.12571792
_symmetry_Int_Tables_number   1
_chemical_formula_structural   Zr2US6
_chemical_formula_sum   'Zr2 U1 S6'
_cell_volume   220.85071710
_cell_formula_units_Z   1
loop_
 _symmetry_equiv_pos_site_id
 _symmetry_equiv_pos_as_xyz
  1  'x, y, z'
loop_
 _atom_site_type_symbol
 _atom_site_label
 _atom_site_symmetry_multiplicity
 _atom_site_fract_x
 _atom_site_fract_y
 _atom_site_fract_z
 _atom_site_occupancy
  Zr  Zr0  1  0.17686780  0.75943787  0.88682753  1
  Zr  Zr1  1  0.82313220  0.24056213  0.11317247  1
  U  U2  1  0.00000000  0.50000000  0.50000000  1
  S  S3  1  0.75203572  0.62287438  0.87305319  1
  S  S4  1  0.24796428  0.37712562  0.12694681  1
  S  S5  1  0.96372486  0.85784207  0.21470921  1
  S  S6  1  0.36837375  0.71315184  0.55010065  1
  S  S7  1  0.03627514  0.14215793  0.78529079  1
  S  S8  1  0.63162625  0.28684816  0.44989935  1
