# generated using pymatgen
data_Ac12Tl3Co5
_symmetry_space_group_name_H-M   'P 1'
_cell_length_a   15.59440794
_cell_length_b   15.59440795
_cell_length_c   15.59440794
_cell_angle_alpha   109.47122063
_cell_angle_beta   109.47122063
_cell_angle_gamma   109.47122063
_symmetry_Int_Tables_number   1
_chemical_formula_structural   Ac12Tl3Co5
_chemical_formula_sum   'Ac48 Tl12 Co20'
_cell_volume   2919.34070197
_cell_formula_units_Z   4
loop_
 _symmetry_equiv_pos_site_id
 _symmetry_equiv_pos_as_xyz
  1  'x, y, z'
loop_
 _atom_site_type_symbol
 _atom_site_label
 _atom_site_symmetry_multiplicity
 _atom_site_fract_x
 _atom_site_fract_y
 _atom_site_fract_z
 _atom_site_occupancy
  Tl  Tl0  1  0.75000000  0.37500000  0.12500000  1
  Tl  Tl1  1  0.87500000  0.75000000  0.12500000  1
  Tl  Tl2  1  0.37500000  0.75000000  0.62500000  1
  Tl  Tl3  1  0.25000000  0.12500000  0.37500000  1
  Tl  Tl4  1  0.87500000  0.12500000  0.25000000  1
  Tl  Tl5  1  0.37500000  0.62500000  0.25000000  1
  Tl  Tl6  1  0.62500000  0.37500000  0.75000000  1
  Tl  Tl7  1  0.12500000  0.87500000  0.75000000  1
  Tl  Tl8  1  0.75000000  0.87500000  0.62500000  1
  Tl  Tl9  1  0.62500000  0.25000000  0.37500000  1
  Tl  Tl10  1  0.12500000  0.25000000  0.87500000  1
  Tl  Tl11  1  0.25000000  0.62500000  0.87500000  1
  Co  Co12  1  0.12500000  0.37500000  0.25000000  1
  Co  Co13  1  0.00000000  0.50000000  0.00000000  1
  Co  Co14  1  0.00000000  0.00000000  0.00000000  1
  Co  Co15  1  0.37500000  0.25000000  0.12500000  1
  Co  Co16  1  0.50000000  0.00000000  0.50000000  1
  Co  Co17  1  0.50000000  0.50000000  0.00000000  1
  Co  Co18  1  0.12500000  0.75000000  0.37500000  1
  Co  Co19  1  0.75000000  0.12500000  0.87500000  1
  Co  Co20  1  0.75000000  0.62500000  0.37500000  1
  Co  Co21  1  0.37500000  0.12500000  0.75000000  1
  Co  Co22  1  0.62500000  0.87500000  0.25000000  1
  Co  Co23  1  0.50000000  0.50000000  0.50000000  1
  Co  Co24  1  0.50000000  0.00000000  0.00000000  1
  Co  Co25  1  -0.00000000  0.00000000  0.50000000  1
  Co  Co26  1  0.25000000  0.37500000  0.62500000  1
  Co  Co27  1  0.25000000  0.87500000  0.12500000  1
  Co  Co28  1  -0.00000000  0.50000000  0.50000000  1
  Co  Co29  1  0.87500000  0.25000000  0.62500000  1
  Co  Co30  1  0.62500000  0.75000000  0.87500000  1
  Co  Co31  1  0.87500000  0.62500000  0.75000000  1
  Ac  Ac32  1  0.70278249  0.11834248  0.02278635  1
  Ac  Ac33  1  0.32000387  0.52278635  0.40444388  1
  Ac  Ac34  1  0.97721365  0.38165752  0.29721751  1
  Ac  Ac35  1  0.52278635  0.20278249  0.11834248  1
  Ac  Ac36  1  0.58444001  0.70278249  0.67999613  1
  Ac  Ac37  1  0.97721365  0.59555612  0.17999613  1
  Ac  Ac38  1  0.32000387  0.79721751  0.41555999  1
  Ac  Ac39  1  0.09555612  0.91555999  0.11834248  1
  Ac  Ac40  1  0.59555612  0.97721365  0.67999613  1
  Ac  Ac41  1  0.70278249  0.58444001  0.17999613  1
  Ac  Ac42  1  0.79721751  0.47721365  0.38165752  1
  Ac  Ac43  1  0.82000387  0.90444388  0.02278635  1
  Ac  Ac44  1  0.11834248  0.70278249  0.52278635  1
  Ac  Ac45  1  0.38165752  0.40444388  0.08444001  1
  Ac  Ac46  1  0.08444001  0.90444388  0.38165752  1
  Ac  Ac47  1  0.41555999  0.11834248  0.59555612  1
  Ac  Ac48  1  0.08444001  0.17999613  0.20278249  1
  Ac  Ac49  1  0.47721365  0.67999613  0.09555612  1
  Ac  Ac50  1  0.82000387  0.91555999  0.29721751  1
  Ac  Ac51  1  0.11834248  0.41555999  0.09555612  1
  Ac  Ac52  1  0.38165752  0.97721365  0.79721751  1
  Ac  Ac53  1  0.59555612  0.61834248  0.41555999  1
  Ac  Ac54  1  0.90444388  0.82000387  0.52278635  1
  Ac  Ac55  1  0.79721751  0.32000387  0.91555999  1
  Ac  Ac56  1  0.40444388  0.38165752  0.58444001  1
  Ac  Ac57  1  0.09555612  0.17999613  0.47721365  1
  Ac  Ac58  1  0.20278249  0.67999613  0.08444001  1
  Ac  Ac59  1  0.17999613  0.08444001  0.70278249  1
  Ac  Ac60  1  0.61834248  0.02278635  0.20278249  1
  Ac  Ac61  1  0.88165752  0.58444001  0.90444388  1
  Ac  Ac62  1  0.52278635  0.32000387  0.90444388  1
  Ac  Ac63  1  0.58444001  0.88165752  0.40444388  1
  Ac  Ac64  1  0.91555999  0.82000387  0.79721751  1
  Ac  Ac65  1  0.91555999  0.09555612  0.61834248  1
  Ac  Ac66  1  0.88165752  0.29721751  0.47721365  1
  Ac  Ac67  1  0.17999613  0.09555612  0.97721365  1
  Ac  Ac68  1  0.61834248  0.59555612  0.91555999  1
  Ac  Ac69  1  0.40444388  0.02278635  0.32000387  1
  Ac  Ac70  1  0.29721751  0.41555999  0.82000387  1
  Ac  Ac71  1  0.20278249  0.52278635  0.61834248  1
  Ac  Ac72  1  0.90444388  0.08444001  0.88165752  1
  Ac  Ac73  1  0.67999613  0.20278249  0.58444001  1
  Ac  Ac74  1  0.47721365  0.79721751  0.88165752  1
  Ac  Ac75  1  0.02278635  0.40444388  0.82000387  1
  Ac  Ac76  1  0.41555999  0.29721751  0.32000387  1
  Ac  Ac77  1  0.02278635  0.61834248  0.70278249  1
  Ac  Ac78  1  0.67999613  0.47721365  0.59555612  1
  Ac  Ac79  1  0.29721751  0.88165752  0.97721365  1
