# generated using pymatgen
data_MnCdTcH
_symmetry_space_group_name_H-M   'P 1'
_cell_length_a   2.80961182
_cell_length_b   2.80961182
_cell_length_c   7.47851294
_cell_angle_alpha   90.00000000
_cell_angle_beta   90.00000000
_cell_angle_gamma   120.00000001
_symmetry_Int_Tables_number   1
_chemical_formula_structural   MnCdTcH
_chemical_formula_sum   'Mn1 Cd1 Tc1 H1'
_cell_volume   51.12561245
_cell_formula_units_Z   1
loop_
 _symmetry_equiv_pos_site_id
 _symmetry_equiv_pos_as_xyz
  1  'x, y, z'
loop_
 _atom_site_type_symbol
 _atom_site_label
 _atom_site_symmetry_multiplicity
 _atom_site_fract_x
 _atom_site_fract_y
 _atom_site_fract_z
 _atom_site_occupancy
  Mn  Mn0  1  0.33333000  0.66667000  0.51599938  1
  Cd  Cd1  1  0.66667000  0.33333000  0.88809260  1
  Tc  Tc2  1  0.33333000  0.66667000  0.23743391  1
  H  H3  1  0.00000000  0.00000000  0.58915412  1
