# generated using pymatgen
data_SrSbAs2
_symmetry_space_group_name_H-M   'P 1'
_cell_length_a   7.64673316
_cell_length_b   7.64673316
_cell_length_c   6.94559849
_cell_angle_alpha   56.60051001
_cell_angle_beta   56.60051001
_cell_angle_gamma   90.00000000
_symmetry_Int_Tables_number   1
_chemical_formula_structural   SrSbAs2
_chemical_formula_sum   'Sr2 Sb2 As4'
_cell_volume   254.90987317
_cell_formula_units_Z   2
loop_
 _symmetry_equiv_pos_site_id
 _symmetry_equiv_pos_as_xyz
  1  'x, y, z'
loop_
 _atom_site_type_symbol
 _atom_site_label
 _atom_site_symmetry_multiplicity
 _atom_site_fract_x
 _atom_site_fract_y
 _atom_site_fract_z
 _atom_site_occupancy
  Sb  Sb0  1  0.00000000  0.00000000  0.00000000  1
  Sb  Sb1  1  0.75000000  0.25000000  0.50000000  1
  As  As2  1  0.67169392  0.12500000  0.25000000  1
  As  As3  1  0.07830608  0.62500000  0.25000000  1
  As  As4  1  0.37500000  0.32830608  0.75000000  1
  As  As5  1  0.87500000  0.92169392  0.75000000  1
  Sr  Sr6  1  0.50000000  0.50000000  0.00000000  1
  Sr  Sr7  1  0.25000000  0.75000000  0.50000000  1
