# generated using pymatgen
data_HfV4Cr
_symmetry_space_group_name_H-M   'P 1'
_cell_length_a   5.01474551
_cell_length_b   5.01474552
_cell_length_c   5.01474552
_cell_angle_alpha   59.99999997
_cell_angle_beta   60.00000000
_cell_angle_gamma   59.99999998
_symmetry_Int_Tables_number   1
_chemical_formula_structural   HfV4Cr
_chemical_formula_sum   'Hf1 V4 Cr1'
_cell_volume   89.17265512
_cell_formula_units_Z   1
loop_
 _symmetry_equiv_pos_site_id
 _symmetry_equiv_pos_as_xyz
  1  'x, y, z'
loop_
 _atom_site_type_symbol
 _atom_site_label
 _atom_site_symmetry_multiplicity
 _atom_site_fract_x
 _atom_site_fract_y
 _atom_site_fract_z
 _atom_site_occupancy
  Cr  Cr0  1  0.25000000  0.25000000  0.25000000  1
  Hf  Hf1  1  0.00000000  0.00000000  0.00000000  1
  V  V2  1  0.62531249  0.62531149  0.12406452  1
  V  V3  1  0.62531249  0.12406452  0.62531149  1
  V  V4  1  0.62531249  0.62531149  0.62531149  1
  V  V5  1  0.12406552  0.62531149  0.62531149  1
