# generated using pymatgen
data_Ba2Dy(In4Ir)3
_symmetry_space_group_name_H-M   'P 1'
_cell_length_a   8.92880669
_cell_length_b   8.92880669
_cell_length_c   8.92880669
_cell_angle_alpha   68.62835913
_cell_angle_beta   68.62835912
_cell_angle_gamma   68.62835913
_symmetry_Int_Tables_number   1
_chemical_formula_structural   Ba2Dy(In4Ir)3
_chemical_formula_sum   'Ba2 Dy1 In12 Ir3'
_cell_volume   594.88039353
_cell_formula_units_Z   1
loop_
 _symmetry_equiv_pos_site_id
 _symmetry_equiv_pos_as_xyz
  1  'x, y, z'
loop_
 _atom_site_type_symbol
 _atom_site_label
 _atom_site_symmetry_multiplicity
 _atom_site_fract_x
 _atom_site_fract_y
 _atom_site_fract_z
 _atom_site_occupancy
  Ba  Ba0  1  0.59541070  0.59541070  0.59541070  1
  Ba  Ba1  1  0.40458930  0.40458930  0.40458930  1
  Dy  Dy2  1  0.00000000  0.00000000  0.00000000  1
  In  In3  1  0.27839842  0.27839842  0.92313062  1
  In  In4  1  0.86000699  0.86000699  0.39024247  1
  In  In5  1  0.39024247  0.86000699  0.86000699  1
  In  In6  1  0.92313062  0.27839842  0.27839842  1
  In  In7  1  0.86000699  0.39024247  0.86000699  1
  In  In8  1  0.27839842  0.92313062  0.27839842  1
  In  In9  1  0.72160158  0.72160158  0.07686938  1
  In  In10  1  0.13999301  0.13999301  0.60975753  1
  In  In11  1  0.60975753  0.13999301  0.13999301  1
  In  In12  1  0.07686938  0.72160158  0.72160158  1
  In  In13  1  0.13999301  0.60975753  0.13999301  1
  In  In14  1  0.72160158  0.07686938  0.72160158  1
  Ir  Ir15  1  0.50000000  0.00000000  0.00000000  1
  Ir  Ir16  1  0.00000000  0.50000000  0.00000000  1
  Ir  Ir17  1  0.00000000  -0.00000000  0.50000000  1
