# generated using pymatgen
data_HoAlInNi
_symmetry_space_group_name_H-M   'P 1'
_cell_length_a   5.52530056
_cell_length_b   5.52530056
_cell_length_c   7.11355354
_cell_angle_alpha   90.00000000
_cell_angle_beta   90.00000000
_cell_angle_gamma   135.21639986
_symmetry_Int_Tables_number   1
_chemical_formula_structural   HoAlInNi
_chemical_formula_sum   'Ho2 Al2 In2 Ni2'
_cell_volume   152.98080013
_cell_formula_units_Z   2
loop_
 _symmetry_equiv_pos_site_id
 _symmetry_equiv_pos_as_xyz
  1  'x, y, z'
loop_
 _atom_site_type_symbol
 _atom_site_label
 _atom_site_symmetry_multiplicity
 _atom_site_fract_x
 _atom_site_fract_y
 _atom_site_fract_z
 _atom_site_occupancy
  Al  Al0  1  0.15656468  0.84343663  0.05087331  1
  Al  Al1  1  0.84343663  0.15656468  0.55087236  1
  Ho  Ho2  1  0.43216338  0.56783793  0.25809604  1
  Ho  Ho3  1  0.56783793  0.43216338  0.75809509  1
  In  In4  1  0.13596353  0.86403778  0.44731652  1
  In  In5  1  0.86403778  0.13596353  0.94731557  1
  Ni  Ni6  1  0.71411204  0.28588926  0.24371504  1
  Ni  Ni7  1  0.28588926  0.71411204  0.74371409  1
