# generated using pymatgen
data_Rb2Be2Ni
_symmetry_space_group_name_H-M   'P 1'
_cell_length_a   3.16986175
_cell_length_b   3.16986175
_cell_length_c   11.59732068
_cell_angle_alpha   82.14517478
_cell_angle_beta   82.14517478
_cell_angle_gamma   90.00000000
_symmetry_Int_Tables_number   1
_chemical_formula_structural   Rb2Be2Ni
_chemical_formula_sum   'Rb2 Be2 Ni1'
_cell_volume   114.33301310
_cell_formula_units_Z   1
loop_
 _symmetry_equiv_pos_site_id
 _symmetry_equiv_pos_as_xyz
  1  'x, y, z'
loop_
 _atom_site_type_symbol
 _atom_site_label
 _atom_site_symmetry_multiplicity
 _atom_site_fract_x
 _atom_site_fract_y
 _atom_site_fract_z
 _atom_site_occupancy
  Ni  Ni0  1  0.00000000  0.00000000  0.00000000  1
  Rb  Rb1  1  0.39445027  0.39445027  0.21109946  1
  Rb  Rb2  1  0.60554973  0.60554973  0.78890054  1
  Be  Be3  1  0.75000000  0.25000000  0.50000000  1
  Be  Be4  1  0.25000000  0.75000000  0.50000000  1
