# generated using pymatgen
data_RbBaMg4
_symmetry_space_group_name_H-M   'P 1'
_cell_length_a   6.69774694
_cell_length_b   6.69774694
_cell_length_c   6.69774694
_cell_angle_alpha   60.00000001
_cell_angle_beta   60.00000002
_cell_angle_gamma   60.00000001
_symmetry_Int_Tables_number   1
_chemical_formula_structural   RbBaMg4
_chemical_formula_sum   'Rb1 Ba1 Mg4'
_cell_volume   212.45707913
_cell_formula_units_Z   1
loop_
 _symmetry_equiv_pos_site_id
 _symmetry_equiv_pos_as_xyz
  1  'x, y, z'
loop_
 _atom_site_type_symbol
 _atom_site_label
 _atom_site_symmetry_multiplicity
 _atom_site_fract_x
 _atom_site_fract_y
 _atom_site_fract_z
 _atom_site_occupancy
  Mg  Mg0  1  0.62407972  0.62407872  0.12776283  1
  Mg  Mg1  1  0.62407972  0.12776283  0.62407872  1
  Mg  Mg2  1  0.62407972  0.62407872  0.62407872  1
  Mg  Mg3  1  0.12776383  0.62407872  0.62407872  1
  Ba  Ba4  1  0.25000000  0.25000000  0.25000000  1
  Rb  Rb5  1  0.00000000  0.00000000  0.00000000  1
