# generated using pymatgen
data_Cd(HgPd2)3
_symmetry_space_group_name_H-M   'P 1'
_cell_length_a   5.59191975
_cell_length_b   8.37305114
_cell_length_c   8.37305115
_cell_angle_alpha   108.31227559
_cell_angle_beta   90.00000000
_cell_angle_gamma   90.00000000
_symmetry_Int_Tables_number   1
_chemical_formula_structural   Cd(HgPd2)3
_chemical_formula_sum   'Cd2 Hg6 Pd12'
_cell_volume   372.18470085
_cell_formula_units_Z   2
loop_
 _symmetry_equiv_pos_site_id
 _symmetry_equiv_pos_as_xyz
  1  'x, y, z'
loop_
 _atom_site_type_symbol
 _atom_site_label
 _atom_site_symmetry_multiplicity
 _atom_site_fract_x
 _atom_site_fract_y
 _atom_site_fract_z
 _atom_site_occupancy
  Cd  Cd0  1  0.06469858  0.18183146  0.81816854  1
  Cd  Cd1  1  0.56469858  0.81816854  0.18183146  1
  Hg  Hg2  1  0.52717061  0.86246724  0.71221543  1
  Hg  Hg3  1  0.02717061  0.71221543  0.86246724  1
  Hg  Hg4  1  0.16268596  0.40243395  0.59756605  1
  Hg  Hg5  1  0.66268596  0.59756605  0.40243395  1
  Hg  Hg6  1  0.02717061  0.13753276  0.28778457  1
  Hg  Hg7  1  0.52717061  0.28778457  0.13753276  1
  Pd  Pd8  1  0.11179992  0.73167821  0.54306033  1
  Pd  Pd9  1  0.61179992  0.54306033  0.73167821  1
  Pd  Pd10  1  0.30832710  0.50077465  0.97833798  1
  Pd  Pd11  1  0.80832710  0.97833798  0.50077465  1
  Pd  Pd12  1  0.29193691  0.99073217  0.00926783  1
  Pd  Pd13  1  0.57144230  0.22031931  0.77968069  1
  Pd  Pd14  1  0.07144230  0.77968069  0.22031931  1
  Pd  Pd15  1  0.79193691  0.00926783  0.99073217  1
  Pd  Pd16  1  0.30832710  0.02166202  0.49922535  1
  Pd  Pd17  1  0.80832710  0.49922535  0.02166202  1
  Pd  Pd18  1  0.11179992  0.45693967  0.26832179  1
  Pd  Pd19  1  0.61179992  0.26832179  0.45693967  1
