# generated using pymatgen
data_Zr2ScTe2
_symmetry_space_group_name_H-M   'P 1'
_cell_length_a   5.48839454
_cell_length_b   5.48839454
_cell_length_c   5.82097055
_cell_angle_alpha   118.12735219
_cell_angle_beta   118.12735219
_cell_angle_gamma   90.00000000
_symmetry_Int_Tables_number   1
_chemical_formula_structural   Zr2ScTe2
_chemical_formula_sum   'Zr2 Sc1 Te2'
_cell_volume   130.68593465
_cell_formula_units_Z   1
loop_
 _symmetry_equiv_pos_site_id
 _symmetry_equiv_pos_as_xyz
  1  'x, y, z'
loop_
 _atom_site_type_symbol
 _atom_site_label
 _atom_site_symmetry_multiplicity
 _atom_site_fract_x
 _atom_site_fract_y
 _atom_site_fract_z
 _atom_site_occupancy
  Sc  Sc0  1  0.00000000  0.00000000  0.00000000  1
  Te  Te1  1  0.75000068  0.25000338  0.50000161  1
  Te  Te2  1  0.25000338  0.75000068  0.50000161  1
  Zr  Zr3  1  0.64916827  0.64916827  0.29833679  1
  Zr  Zr4  1  0.35083322  0.35083322  0.70166643  1
