# generated using pymatgen
data_CdFeTc2
_symmetry_space_group_name_H-M   'P 1'
_cell_length_a   4.41633353
_cell_length_b   4.41633353
_cell_length_c   4.41633353
_cell_angle_alpha   60.00000000
_cell_angle_beta   60.00000000
_cell_angle_gamma   60.00000000
_symmetry_Int_Tables_number   1
_chemical_formula_structural   CdFeTc2
_chemical_formula_sum   'Cd1 Fe1 Tc2'
_cell_volume   60.90747504
_cell_formula_units_Z   1
loop_
 _symmetry_equiv_pos_site_id
 _symmetry_equiv_pos_as_xyz
  1  'x, y, z'
loop_
 _atom_site_type_symbol
 _atom_site_label
 _atom_site_symmetry_multiplicity
 _atom_site_fract_x
 _atom_site_fract_y
 _atom_site_fract_z
 _atom_site_occupancy
  Cd  Cd0  1  0.25000005  0.25000005  0.25000005  1
  Fe  Fe1  1  0.50000010  0.50000010  0.50000010  1
  Tc  Tc2  1  0.00000000  0.00000000  0.00000000  1
  Tc  Tc3  1  0.75000015  0.75000015  0.75000015  1
