# generated using pymatgen
data_NaTmPO
_symmetry_space_group_name_H-M   'P 1'
_cell_length_a   3.80295537
_cell_length_b   3.80295537
_cell_length_c   10.01139320
_cell_angle_alpha   90.00000000
_cell_angle_beta   90.00000000
_cell_angle_gamma   90.00000000
_symmetry_Int_Tables_number   1
_chemical_formula_structural   NaTmPO
_chemical_formula_sum   'Na2 Tm2 P2 O2'
_cell_volume   144.78946944
_cell_formula_units_Z   2
loop_
 _symmetry_equiv_pos_site_id
 _symmetry_equiv_pos_as_xyz
  1  'x, y, z'
loop_
 _atom_site_type_symbol
 _atom_site_label
 _atom_site_symmetry_multiplicity
 _atom_site_fract_x
 _atom_site_fract_y
 _atom_site_fract_z
 _atom_site_occupancy
  Na  Na0  1  0.00000000  0.00000000  0.50000034  1
  Na  Na1  1  0.50000061  0.50000061  0.50000034  1
  O  O2  1  0.00000000  0.00000000  0.00000000  1
  O  O3  1  0.50000061  0.50000061  0.00000000  1
  P  P4  1  0.50000061  0.00000000  0.28938730  1
  P  P5  1  0.00000000  0.50000061  0.71061239  1
  Tm  Tm6  1  0.00000000  0.50000061  0.10925153  1
  Tm  Tm7  1  0.50000061  0.00000000  0.89074815  1
