# generated using pymatgen
data_Hf2Mg2Zr
_symmetry_space_group_name_H-M   'P 1'
_cell_length_a   7.60573875
_cell_length_b   7.60573875
_cell_length_c   7.60573875
_cell_angle_alpha   149.33408559
_cell_angle_beta   149.33408559
_cell_angle_gamma   43.91977996
_symmetry_Int_Tables_number   1
_chemical_formula_structural   Hf2Mg2Zr
_chemical_formula_sum   'Hf2 Mg2 Zr1'
_cell_volume   114.12665792
_cell_formula_units_Z   1
loop_
 _symmetry_equiv_pos_site_id
 _symmetry_equiv_pos_as_xyz
  1  'x, y, z'
loop_
 _atom_site_type_symbol
 _atom_site_label
 _atom_site_symmetry_multiplicity
 _atom_site_fract_x
 _atom_site_fract_y
 _atom_site_fract_z
 _atom_site_occupancy
  Hf  Hf0  1  0.74999986  0.24999961  0.50000025  1
  Hf  Hf1  1  0.24999961  0.74999986  0.50000025  1
  Mg  Mg2  1  0.40575788  0.40575788  0.00000000  1
  Mg  Mg3  1  0.59424197  0.59424197  0.00000000  1
  Zr  Zr4  1  0.00000000  0.00000000  0.00000000  1
