# generated using pymatgen
data_Y2Zr4(AsN)3
_symmetry_space_group_name_H-M   'P 1'
_cell_length_a   6.08017533
_cell_length_b   6.08017533
_cell_length_c   13.15596104
_cell_angle_alpha   103.33939712
_cell_angle_beta   103.33939712
_cell_angle_gamma   60.00084435
_symmetry_Int_Tables_number   1
_chemical_formula_structural   Y2Zr4(AsN)3
_chemical_formula_sum   'Y4 Zr8 As6 N6'
_cell_volume   405.97817775
_cell_formula_units_Z   2
loop_
 _symmetry_equiv_pos_site_id
 _symmetry_equiv_pos_as_xyz
  1  'x, y, z'
loop_
 _atom_site_type_symbol
 _atom_site_label
 _atom_site_symmetry_multiplicity
 _atom_site_fract_x
 _atom_site_fract_y
 _atom_site_fract_z
 _atom_site_occupancy
  As  As0  1  0.23329414  0.41572076  0.24900766  1
  As  As1  1  0.93399700  0.06600351  0.24999973  1
  As  As2  1  0.58427906  0.76670568  0.25099260  1
  As  As3  1  0.41572037  0.23329375  0.74900791  1
  As  As4  1  0.06600312  0.93399661  0.74999999  1
  As  As5  1  0.76670598  0.58427936  0.75099206  1
  N  N6  1  0.49999928  0.00000000  0.00000000  1
  N  N7  1  0.84460027  0.32780598  0.00000000  1
  N  N8  1  0.15539994  0.67219423  0.00000000  1
  N  N9  1  0.32780559  0.84459988  0.50000025  1
  N  N10  1  0.00000000  0.49999984  0.50000025  1
  N  N11  1  0.67219384  0.15539955  0.50000025  1
  Y  Y12  1  0.53495958  0.37046971  0.10365054  1
  Y  Y13  1  0.62953011  0.46504024  0.39634971  1
  Y  Y14  1  0.37046933  0.53495919  0.60365079  1
  Y  Y15  1  0.46504054  0.62953040  0.89634918  1
  Zr  Zr16  1  0.20079846  0.03080553  0.09595841  1
  Zr  Zr17  1  0.86409459  0.69854885  0.09608774  1
  Zr  Zr18  1  0.30145192  0.13590618  0.40391251  1
  Zr  Zr19  1  0.96919429  0.79920136  0.40404184  1
  Zr  Zr20  1  0.03080583  0.20079876  0.59595788  1
  Zr  Zr21  1  0.69854820  0.86409394  0.59608721  1
  Zr  Zr22  1  0.13590579  0.30145153  0.90391277  1
  Zr  Zr23  1  0.79920192  0.96919485  0.90404210  1
