# generated using pymatgen
data_Pr(AlCd)2
_symmetry_space_group_name_H-M   'P 1'
_cell_length_a   6.63132588
_cell_length_b   6.63132588
_cell_length_c   6.63132588
_cell_angle_alpha   141.25773586
_cell_angle_beta   141.25773586
_cell_angle_gamma   55.94849183
_symmetry_Int_Tables_number   1
_chemical_formula_structural   Pr(AlCd)2
_chemical_formula_sum   'Pr1 Al2 Cd2'
_cell_volume   113.33229275
_cell_formula_units_Z   1
loop_
 _symmetry_equiv_pos_site_id
 _symmetry_equiv_pos_as_xyz
  1  'x, y, z'
loop_
 _atom_site_type_symbol
 _atom_site_label
 _atom_site_symmetry_multiplicity
 _atom_site_fract_x
 _atom_site_fract_y
 _atom_site_fract_z
 _atom_site_occupancy
  Al  Al0  1  0.75000017  0.24999949  0.50000068  1
  Al  Al1  1  0.24999949  0.75000017  0.50000068  1
  Cd  Cd2  1  0.38491256  0.38491256  0.00000000  1
  Cd  Cd3  1  0.61508710  0.61508710  0.00000000  1
  Pr  Pr4  1  0.00000000  0.00000000  0.00000000  1
