# generated using pymatgen
data_TcBi2Pd
_symmetry_space_group_name_H-M   'P 1'
_cell_length_a   4.94659150
_cell_length_b   4.94659150
_cell_length_c   4.94659150
_cell_angle_alpha   60.00000000
_cell_angle_beta   60.00000000
_cell_angle_gamma   60.00000000
_symmetry_Int_Tables_number   1
_chemical_formula_structural   TcBi2Pd
_chemical_formula_sum   'Tc1 Bi2 Pd1'
_cell_volume   85.58608159
_cell_formula_units_Z   1
loop_
 _symmetry_equiv_pos_site_id
 _symmetry_equiv_pos_as_xyz
  1  'x, y, z'
loop_
 _atom_site_type_symbol
 _atom_site_label
 _atom_site_symmetry_multiplicity
 _atom_site_fract_x
 _atom_site_fract_y
 _atom_site_fract_z
 _atom_site_occupancy
  Bi  Bi0  1  0.24999940  0.24999940  0.24999940  1
  Bi  Bi1  1  0.50000023  0.50000023  0.50000023  1
  Pd  Pd2  1  0.74999963  0.74999963  0.74999963  1
  Tc  Tc3  1  0.00000000  0.00000000  0.00000000  1
