# generated using pymatgen
data_CdAs2O
_symmetry_space_group_name_H-M   'P 1'
_cell_length_a   4.52093670
_cell_length_b   4.52093670
_cell_length_c   8.09211700
_cell_angle_alpha   90.00000000
_cell_angle_beta   90.00000000
_cell_angle_gamma   90.00010754
_symmetry_Int_Tables_number   1
_chemical_formula_structural   CdAs2O
_chemical_formula_sum   'Cd2 As4 O2'
_cell_volume   165.39371664
_cell_formula_units_Z   2
loop_
 _symmetry_equiv_pos_site_id
 _symmetry_equiv_pos_as_xyz
  1  'x, y, z'
loop_
 _atom_site_type_symbol
 _atom_site_label
 _atom_site_symmetry_multiplicity
 _atom_site_fract_x
 _atom_site_fract_y
 _atom_site_fract_z
 _atom_site_occupancy
  As  As0  1  0.00000000  0.00000000  0.34510252  1
  As  As1  1  0.49999922  -0.00000000  0.50000019  1
  As  As2  1  -0.00000000  0.49999922  0.50000019  1
  As  As3  1  0.49999969  0.49999969  0.65489661  1
  Cd  Cd4  1  0.49999969  0.49999969  0.03338187  1
  Cd  Cd5  1  0.00000000  0.00000000  0.96661726  1
  O  O6  1  0.49999922  -0.00000000  0.00000000  1
  O  O7  1  -0.00000000  0.49999922  0.00000000  1
