# generated using pymatgen
data_KIrO3
_symmetry_space_group_name_H-M   'P 1'
_cell_length_a   6.43899200
_cell_length_b   4.82386300
_cell_length_c   10.41788600
_cell_angle_alpha   90.00000000
_cell_angle_beta   90.00000000
_cell_angle_gamma   90.00000000
_symmetry_Int_Tables_number   1
_chemical_formula_structural   KIrO3
_chemical_formula_sum   'K4 Ir4 O12'
_cell_volume   323.58803251
_cell_formula_units_Z   4
loop_
 _symmetry_equiv_pos_site_id
 _symmetry_equiv_pos_as_xyz
  1  'x, y, z'
loop_
 _atom_site_type_symbol
 _atom_site_label
 _atom_site_symmetry_multiplicity
 _atom_site_fract_x
 _atom_site_fract_y
 _atom_site_fract_z
 _atom_site_occupancy
  Ir  Ir0  1  0.04990999  0.02300646  0.25000082  1
  Ir  Ir1  1  0.45008908  0.52300615  0.25000082  1
  Ir  Ir2  1  0.54991061  0.47699323  0.75000053  1
  Ir  Ir3  1  0.95008970  0.97699292  0.75000053  1
  K  K4  1  0.49999907  0.00000000  0.00000000  1
  K  K5  1  0.00000000  0.49999969  0.00000000  1
  K  K6  1  0.49999907  0.00000000  0.49999971  1
  K  K7  1  0.00000000  0.49999969  0.49999971  1
  O  O8  1  0.61088288  0.48714899  0.10965756  1
  O  O9  1  0.88911587  0.98714868  0.10965756  1
  O  O10  1  0.16747963  0.40970898  0.25000082  1
  O  O11  1  0.33252254  0.90970867  0.25000082  1
  O  O12  1  0.61088288  0.48714899  0.39034215  1
  O  O13  1  0.88911587  0.98714868  0.39034215  1
  O  O14  1  0.11088226  0.01285070  0.60965728  1
  O  O15  1  0.38911681  0.51285039  0.60965728  1
  O  O16  1  0.66747870  0.09029071  0.75000053  1
  O  O17  1  0.83252161  0.59029040  0.75000053  1
  O  O18  1  0.11088226  0.01285070  0.89034186  1
  O  O19  1  0.38911681  0.51285039  0.89034186  1
