# generated using pymatgen
data_Lu2IrO4
_symmetry_space_group_name_H-M   'P 1'
_cell_length_a   6.54483336
_cell_length_b   6.54483336
_cell_length_c   6.54483336
_cell_angle_alpha   119.99039369
_cell_angle_beta   90.01663942
_cell_angle_gamma   119.99039369
_symmetry_Int_Tables_number   1
_chemical_formula_structural   Lu2IrO4
_chemical_formula_sum   'Lu4 Ir2 O8'
_cell_volume   198.26397837
_cell_formula_units_Z   2
loop_
 _symmetry_equiv_pos_site_id
 _symmetry_equiv_pos_as_xyz
  1  'x, y, z'
loop_
 _atom_site_type_symbol
 _atom_site_label
 _atom_site_symmetry_multiplicity
 _atom_site_fract_x
 _atom_site_fract_y
 _atom_site_fract_z
 _atom_site_occupancy
  Ir  Ir0  1  0.00000000  0.00000000  0.00000000  1
  Ir  Ir1  1  0.74999892  0.49999914  0.24999978  1
  Lu  Lu2  1  0.37499978  0.74999870  0.12500022  1
  Lu  Lu3  1  0.37499892  0.74999870  0.62499849  1
  Lu  Lu4  1  0.37500022  0.24999957  0.62499978  1
  Lu  Lu5  1  0.87499957  0.24999957  0.62500000  1
  O  O6  1  0.16297459  0.77535212  0.38762074  1
  O  O7  1  0.61226841  0.22464615  0.38762225  1
  O  O8  1  0.61237753  0.77535212  0.38773138  1
  O  O9  1  0.13762247  0.27535298  0.41297545  1
  O  O10  1  0.61237796  0.22464615  0.83702412  1
  O  O11  1  0.13762247  0.72464529  0.86226776  1
  O  O12  1  0.13773094  0.27535298  0.86237623  1
  O  O13  1  0.58702325  0.72464529  0.86237623  1
