# generated using pymatgen
data_TmGeTe3Au
_symmetry_space_group_name_H-M   'P 1'
_cell_length_a   10.08476092
_cell_length_b   10.08476092
_cell_length_c   8.56930160
_cell_angle_alpha   100.18067914
_cell_angle_beta   100.18067914
_cell_angle_gamma   23.49210801
_symmetry_Int_Tables_number   1
_chemical_formula_structural   TmGeTe3Au
_chemical_formula_sum   'Tm2 Ge2 Te6 Au2'
_cell_volume   341.69883358
_cell_formula_units_Z   2
loop_
 _symmetry_equiv_pos_site_id
 _symmetry_equiv_pos_as_xyz
  1  'x, y, z'
loop_
 _atom_site_type_symbol
 _atom_site_label
 _atom_site_symmetry_multiplicity
 _atom_site_fract_x
 _atom_site_fract_y
 _atom_site_fract_z
 _atom_site_occupancy
  Au  Au0  1  0.55580986  0.55580986  0.21564814  1
  Au  Au1  1  0.44418978  0.44418978  0.78435206  1
  Ge  Ge2  1  0.88186737  0.88186737  0.43425885  1
  Ge  Ge3  1  0.11813277  0.11813277  0.56574135  1
  Te  Te4  1  0.00000000  0.00000000  0.00000000  1
  Te  Te5  1  0.32270931  0.32270931  0.16164564  1
  Te  Te6  1  0.68834992  0.68834992  0.36638081  1
  Te  Te7  1  0.50000007  0.50000007  0.50000010  1
  Te  Te8  1  0.31165022  0.31165022  0.63361940  1
  Te  Te9  1  0.67729083  0.67729083  0.83835456  1
  Tm  Tm10  1  0.16066166  0.16066166  0.09109096  1
  Tm  Tm11  1  0.83933848  0.83933848  0.90890924  1
