# generated using pymatgen
data_Li4SiTcO6
_symmetry_space_group_name_H-M   'P 1'
_cell_length_a   4.99721929
_cell_length_b   4.99721929
_cell_length_c   4.99298773
_cell_angle_alpha   99.74741000
_cell_angle_beta   99.74741000
_cell_angle_gamma   120.01661070
_symmetry_Int_Tables_number   1
_chemical_formula_structural   Li4SiTcO6
_chemical_formula_sum   'Li4 Si1 Tc1 O6'
_cell_volume   101.58204771
_cell_formula_units_Z   1
loop_
 _symmetry_equiv_pos_site_id
 _symmetry_equiv_pos_as_xyz
  1  'x, y, z'
loop_
 _atom_site_type_symbol
 _atom_site_label
 _atom_site_symmetry_multiplicity
 _atom_site_fract_x
 _atom_site_fract_y
 _atom_site_fract_z
 _atom_site_occupancy
  Li  Li0  1  0.50064069  0.49935837  0.00000000  1
  Li  Li1  1  0.99141321  0.00858503  0.49999947  1
  Li  Li2  1  0.66326432  0.33673392  0.49999947  1
  Li  Li3  1  0.34174191  0.65825632  0.49999947  1
  O  O4  1  0.60657723  0.94629361  0.21837039  1
  O  O5  1  0.91711288  0.54406765  0.22465326  1
  O  O6  1  0.20339923  0.23371520  0.22549850  1
  O  O7  1  0.76628576  0.79660174  0.77450257  1
  O  O8  1  0.45593259  0.08288736  0.77534568  1
  O  O9  1  0.05370735  0.39342373  0.78163068  1
  Si  Si10  1  0.83291613  0.16708293  -0.00000000  1
  Tc  Tc11  1  0.16700437  0.83299468  -0.00000000  1
