# generated using pymatgen
data_NdYNO
_symmetry_space_group_name_H-M   'P 1'
_cell_length_a   4.47605664
_cell_length_b   4.47605664
_cell_length_c   8.31547300
_cell_angle_alpha   90.00000000
_cell_angle_beta   90.00000000
_cell_angle_gamma   89.99992759
_symmetry_Int_Tables_number   1
_chemical_formula_structural   NdYNO
_chemical_formula_sum   'Nd2 Y2 N2 O2'
_cell_volume   166.60119178
_cell_formula_units_Z   2
loop_
 _symmetry_equiv_pos_site_id
 _symmetry_equiv_pos_as_xyz
  1  'x, y, z'
loop_
 _atom_site_type_symbol
 _atom_site_label
 _atom_site_symmetry_multiplicity
 _atom_site_fract_x
 _atom_site_fract_y
 _atom_site_fract_z
 _atom_site_occupancy
  N  N0  1  0.75000032  0.75000032  0.43521517  1
  N  N1  1  0.25000063  0.25000063  0.56478447  1
  Nd  Nd2  1  0.25000063  0.25000063  0.10335191  1
  Nd  Nd3  1  0.75000032  0.75000032  0.89664773  1
  O  O4  1  0.75000063  0.24999874  0.00000000  1
  O  O5  1  0.24999874  0.75000063  0.00000000  1
  Y  Y6  1  0.75000063  0.24999874  0.50000042  1
  Y  Y7  1  0.24999874  0.75000063  0.50000042  1
