# generated using pymatgen
data_CsPaPO
_symmetry_space_group_name_H-M   'P 1'
_cell_length_a   4.38952915
_cell_length_b   8.96747825
_cell_length_c   7.10141516
_cell_angle_alpha   90.00000000
_cell_angle_beta   90.00000000
_cell_angle_gamma   90.00000000
_symmetry_Int_Tables_number   1
_chemical_formula_structural   CsPaPO
_chemical_formula_sum   'Cs2 Pa2 P2 O2'
_cell_volume   279.53305559
_cell_formula_units_Z   2
loop_
 _symmetry_equiv_pos_site_id
 _symmetry_equiv_pos_as_xyz
  1  'x, y, z'
loop_
 _atom_site_type_symbol
 _atom_site_label
 _atom_site_symmetry_multiplicity
 _atom_site_fract_x
 _atom_site_fract_y
 _atom_site_fract_z
 _atom_site_occupancy
  Cs  Cs0  1  0.00000000  0.16239571  0.45628089  1
  Cs  Cs1  1  0.00000000  0.83760448  0.95628123  1
  O  O2  1  0.49999896  0.41313175  0.33408271  1
  O  O3  1  0.49999896  0.58686844  0.83408305  1
  P  P4  1  0.00000000  0.76785132  0.43929131  1
  P  P5  1  0.00000000  0.23214888  0.93929166  1
  Pa  Pa6  1  0.49999896  0.39379856  0.02434163  1
  Pa  Pa7  1  0.49999896  0.60620164  0.52434197  1
