# generated using pymatgen
data_InGe2Mo
_symmetry_space_group_name_H-M   'P 1'
_cell_length_a   4.73104682
_cell_length_b   4.73104682
_cell_length_c   4.73104682
_cell_angle_alpha   60.00000000
_cell_angle_beta   60.00000000
_cell_angle_gamma   60.00000000
_symmetry_Int_Tables_number   1
_chemical_formula_structural   InGe2Mo
_chemical_formula_sum   'In1 Ge2 Mo1'
_cell_volume   74.87843194
_cell_formula_units_Z   1
loop_
 _symmetry_equiv_pos_site_id
 _symmetry_equiv_pos_as_xyz
  1  'x, y, z'
loop_
 _atom_site_type_symbol
 _atom_site_label
 _atom_site_symmetry_multiplicity
 _atom_site_fract_x
 _atom_site_fract_y
 _atom_site_fract_z
 _atom_site_occupancy
  Ge  Ge0  1  0.00000000  0.00000000  0.00000000  1
  Ge  Ge1  1  0.74999956  0.74999956  0.74999956  1
  In  In2  1  0.50000070  0.50000070  0.50000070  1
  Mo  Mo3  1  0.25000035  0.25000035  0.25000035  1
