# generated using pymatgen
data_BaLuAuSe3
_symmetry_space_group_name_H-M   'P 1'
_cell_length_a   9.40083370
_cell_length_b   9.40083370
_cell_length_c   8.66677449
_cell_angle_alpha   100.09019944
_cell_angle_beta   100.09019944
_cell_angle_gamma   25.46031908
_symmetry_Int_Tables_number   1
_chemical_formula_structural   BaLuAuSe3
_chemical_formula_sum   'Ba2 Lu2 Au2 Se6'
_cell_volume   323.90865785
_cell_formula_units_Z   2
loop_
 _symmetry_equiv_pos_site_id
 _symmetry_equiv_pos_as_xyz
  1  'x, y, z'
loop_
 _atom_site_type_symbol
 _atom_site_label
 _atom_site_symmetry_multiplicity
 _atom_site_fract_x
 _atom_site_fract_y
 _atom_site_fract_z
 _atom_site_occupancy
  Au  Au0  1  0.54037011  0.54037011  0.21297166  1
  Au  Au1  1  0.45962998  0.45962998  0.78702845  1
  Ba  Ba2  1  0.86813627  0.86813627  0.42219824  1
  Ba  Ba3  1  0.13186329  0.13186329  0.57780188  1
  Lu  Lu4  1  0.16384056  0.16384056  0.08576879  1
  Lu  Lu5  1  0.83615954  0.83615954  0.91423133  1
  Se  Se6  1  0.00000000  0.00000000  0.00000000  1
  Se  Se7  1  0.32285197  0.32285197  0.12639357  1
  Se  Se8  1  0.68414750  0.68414750  0.31403046  1
  Se  Se9  1  0.49999973  0.49999973  0.49999947  1
  Se  Se10  1  0.31585259  0.31585259  0.68596966  1
  Se  Se11  1  0.67714813  0.67714813  0.87360654  1
