# generated using pymatgen
data_Gd
_symmetry_space_group_name_H-M   'P 1'
_cell_length_a   3.56712800
_cell_length_b   3.56712760
_cell_length_c   8.71806300
_cell_angle_alpha   90.00000000
_cell_angle_beta   90.00000000
_cell_angle_gamma   120.00000375
_symmetry_Int_Tables_number   1
_chemical_formula_structural   Gd
_chemical_formula_sum   Gd3
_cell_volume   96.07003660
_cell_formula_units_Z   3
loop_
 _symmetry_equiv_pos_site_id
 _symmetry_equiv_pos_as_xyz
  1  'x, y, z'
loop_
 _atom_site_type_symbol
 _atom_site_label
 _atom_site_symmetry_multiplicity
 _atom_site_fract_x
 _atom_site_fract_y
 _atom_site_fract_z
 _atom_site_occupancy
  Gd  Gd0  1  0.65760507  0.65760549  0.00000000  1
  Gd  Gd1  1  0.34239654  0.00000000  0.33333322  1
  Gd  Gd2  1  -0.00000000  0.34239678  0.66666758  1
