# generated using pymatgen
data_La3Cu2(Si2Pt)2
_symmetry_space_group_name_H-M   'P 1'
_cell_length_a   12.53197828
_cell_length_b   12.53197828
_cell_length_c   12.53197828
_cell_angle_alpha   160.69334511
_cell_angle_beta   160.26411333
_cell_angle_gamma   27.74579835
_symmetry_Int_Tables_number   1
_chemical_formula_structural   La3Cu2(Si2Pt)2
_chemical_formula_sum   'La3 Cu2 Si4 Pt2'
_cell_volume   219.64165715
_cell_formula_units_Z   1
loop_
 _symmetry_equiv_pos_site_id
 _symmetry_equiv_pos_as_xyz
  1  'x, y, z'
loop_
 _atom_site_type_symbol
 _atom_site_label
 _atom_site_symmetry_multiplicity
 _atom_site_fract_x
 _atom_site_fract_y
 _atom_site_fract_z
 _atom_site_occupancy
  Cu  Cu0  1  0.09669566  0.09669566  -0.00000000  1
  Cu  Cu1  1  0.90330431  0.90330431  0.00000000  1
  La  La2  1  0.35362784  0.35362784  0.00000000  1
  La  La3  1  0.64637212  0.64637212  0.00000000  1
  La  La4  1  0.49999901  -0.00000000  0.49999901  1
  Pt  Pt5  1  0.74840445  0.24840544  0.49999901  1
  Pt  Pt6  1  0.25159454  0.75159405  0.49999951  1
  Si  Si7  1  0.19576013  0.19576013  0.00000000  1
  Si  Si8  1  0.80423984  0.80423984  0.00000000  1
  Si  Si9  1  0.95019018  0.45019116  0.49999901  1
  Si  Si10  1  0.04980882  0.54980832  0.49999951  1
