# generated using pymatgen
data_Pr(InNi)2
_symmetry_space_group_name_H-M   'P 1'
_cell_length_a   6.10554815
_cell_length_b   6.10554815
_cell_length_c   6.10554815
_cell_angle_alpha   137.29373636
_cell_angle_beta   137.29373636
_cell_angle_gamma   61.98641448
_symmetry_Int_Tables_number   1
_chemical_formula_structural   Pr(InNi)2
_chemical_formula_sum   'Pr1 In2 Ni2'
_cell_volume   103.46840946
_cell_formula_units_Z   1
loop_
 _symmetry_equiv_pos_site_id
 _symmetry_equiv_pos_as_xyz
  1  'x, y, z'
loop_
 _atom_site_type_symbol
 _atom_site_label
 _atom_site_symmetry_multiplicity
 _atom_site_fract_x
 _atom_site_fract_y
 _atom_site_fract_z
 _atom_site_occupancy
  In  In0  1  0.36421188  0.36421188  0.00000000  1
  In  In1  1  0.63578831  0.63578831  0.00000000  1
  Ni  Ni2  1  0.74999912  0.24999957  0.49999955  1
  Ni  Ni3  1  0.24999957  0.74999912  0.49999955  1
  Pr  Pr4  1  0.00000000  0.00000000  0.00000000  1
