# generated using pymatgen
data_UF5
_symmetry_space_group_name_H-M   'P 1'
_cell_length_a   4.83282100
_cell_length_b   8.37140636
_cell_length_c   8.37140636
_cell_angle_alpha   94.77937162
_cell_angle_beta   73.22282385
_cell_angle_gamma   106.77717615
_symmetry_Int_Tables_number   1
_chemical_formula_structural   UF5
_chemical_formula_sum   'U4 F20'
_cell_volume   310.46722184
_cell_formula_units_Z   4
loop_
 _symmetry_equiv_pos_site_id
 _symmetry_equiv_pos_as_xyz
  1  'x, y, z'
loop_
 _atom_site_type_symbol
 _atom_site_label
 _atom_site_symmetry_multiplicity
 _atom_site_fract_x
 _atom_site_fract_y
 _atom_site_fract_z
 _atom_site_occupancy
  F  F0  1  0.12500080  0.52980205  0.02980143  1
  F  F1  1  0.85152736  0.78152004  0.06866945  1
  F  F2  1  0.51351523  0.20104674  0.12097458  1
  F  F3  1  0.36551063  0.87902489  0.20104497  1
  F  F4  1  0.92999465  0.06866945  0.21847943  1
  F  F5  1  0.39847315  0.56866919  0.28152031  1
  F  F6  1  0.81655769  0.37902604  0.29895388  1
  F  F7  1  0.88449076  0.70104559  0.37902427  1
  F  F8  1  0.17019618  0.28152031  0.43133029  1
  F  F9  1  0.40480052  0.02980143  0.47019919  1
  F  F10  1  0.84519819  0.97019892  0.52980117  1
  F  F11  1  0.32000613  0.71848005  0.56867007  1
  F  F12  1  0.56246951  0.29895388  0.62097520  1
  F  F13  1  0.73648555  0.62097431  0.70104647  1
  F  F14  1  0.11132433  0.43133117  0.71848005  1
  F  F15  1  0.07980273  0.93133090  0.78152092  1
  F  F16  1  0.68753065  0.12097458  0.79895450  1
  F  F17  1  0.43344308  0.79895362  0.87902577  1
  F  F18  1  0.13867691  0.21848031  0.93133090  1
  F  F19  1  0.62499801  0.47019742  0.97019804  1
  U  U20  1  0.20975884  0.33475971  0.16524091  1
  U  U21  1  0.62499863  0.83476033  0.33475971  1
  U  U22  1  0.12499811  0.16524003  0.66524064  1
  U  U23  1  0.04024007  0.66524064  0.83475944  1
