# generated using pymatgen
data_MgBeAlCo
_symmetry_space_group_name_H-M   'P 1'
_cell_length_a   4.14804960
_cell_length_b   4.14804960
_cell_length_c   4.14804960
_cell_angle_alpha   60.00000000
_cell_angle_beta   60.00000000
_cell_angle_gamma   60.00000000
_symmetry_Int_Tables_number   1
_chemical_formula_structural   MgBeAlCo
_chemical_formula_sum   'Mg1 Be1 Al1 Co1'
_cell_volume   50.46808481
_cell_formula_units_Z   1
loop_
 _symmetry_equiv_pos_site_id
 _symmetry_equiv_pos_as_xyz
  1  'x, y, z'
loop_
 _atom_site_type_symbol
 _atom_site_label
 _atom_site_symmetry_multiplicity
 _atom_site_fract_x
 _atom_site_fract_y
 _atom_site_fract_z
 _atom_site_occupancy
  Al  Al0  1  0.24999881  0.24999881  0.24999881  1
  Be  Be1  1  0.00000000  0.00000000  0.00000000  1
  Co  Co2  1  0.74999983  0.74999983  0.74999983  1
  Mg  Mg3  1  0.50000102  0.50000102  0.50000102  1
