# generated using pymatgen
data_TbHgPO
_symmetry_space_group_name_H-M   'P 1'
_cell_length_a   4.07782408
_cell_length_b   6.13744166
_cell_length_c   6.68296541
_cell_angle_alpha   90.00000000
_cell_angle_beta   90.00000000
_cell_angle_gamma   90.00000000
_symmetry_Int_Tables_number   1
_chemical_formula_structural   TbHgPO
_chemical_formula_sum   'Tb2 Hg2 P2 O2'
_cell_volume   167.25729796
_cell_formula_units_Z   2
loop_
 _symmetry_equiv_pos_site_id
 _symmetry_equiv_pos_as_xyz
  1  'x, y, z'
loop_
 _atom_site_type_symbol
 _atom_site_label
 _atom_site_symmetry_multiplicity
 _atom_site_fract_x
 _atom_site_fract_y
 _atom_site_fract_z
 _atom_site_occupancy
  Hg  Hg0  1  0.00000000  0.56543592  0.49789873  1
  Hg  Hg1  1  0.00000000  0.43456380  0.99789982  1
  O  O2  1  0.49999950  0.77752592  0.35961281  1
  O  O3  1  0.49999950  0.22247381  0.85961241  1
  P  P4  1  0.00000000  0.21243216  0.31723791  1
  P  P5  1  0.00000000  0.78756757  0.81723751  1
  Tb  Tb6  1  0.49999950  0.95710726  0.07924626  1
  Tb  Tb7  1  0.49999950  0.04289246  0.57924585  1
