# generated using pymatgen
data_SrHoAgS3
_symmetry_space_group_name_H-M   'P 1'
_cell_length_a   10.35771903
_cell_length_b   4.02766250
_cell_length_c   13.30995054
_cell_angle_alpha   90.00000000
_cell_angle_beta   90.00000000
_cell_angle_gamma   90.00000000
_symmetry_Int_Tables_number   1
_chemical_formula_structural   SrHoAgS3
_chemical_formula_sum   'Sr4 Ho4 Ag4 S12'
_cell_volume   555.25648480
_cell_formula_units_Z   4
loop_
 _symmetry_equiv_pos_site_id
 _symmetry_equiv_pos_as_xyz
  1  'x, y, z'
loop_
 _atom_site_type_symbol
 _atom_site_label
 _atom_site_symmetry_multiplicity
 _atom_site_fract_x
 _atom_site_fract_y
 _atom_site_fract_z
 _atom_site_occupancy
  Ag  Ag0  1  0.23425042  0.25000109  0.22412029  1
  Ag  Ag1  1  0.73425046  0.25000109  0.27587931  1
  Ag  Ag2  1  0.26574866  0.75000078  0.72412065  1
  Ag  Ag3  1  0.76574871  0.75000078  0.77587967  1
  Ho  Ho4  1  0.48243054  0.75000078  0.24323381  1
  Ho  Ho5  1  0.98243059  0.75000078  0.25676579  1
  Ho  Ho6  1  0.01756854  0.25000109  0.74323417  1
  Ho  Ho7  1  0.51756859  0.25000109  0.75676615  1
  S  S8  1  0.42391766  0.25000109  0.10903121  1
  S  S9  1  0.03663644  0.25000109  0.11639863  1
  S  S10  1  0.73488767  0.75000078  0.16076318  1
  S  S11  1  0.23488762  0.75000078  0.33923642  1
  S  S12  1  0.53663649  0.25000109  0.38360097  1
  S  S13  1  0.92391771  0.25000109  0.39096840  1
  S  S14  1  0.07608142  0.75000078  0.60903156  1
  S  S15  1  0.46336264  0.75000078  0.61639898  1
  S  S16  1  0.76511151  0.25000109  0.66076354  1
  S  S17  1  0.26511242  0.25000109  0.83923678  1
  S  S18  1  0.96336268  0.75000078  0.88360133  1
  S  S19  1  0.57608147  0.75000078  0.89096875  1
  Sr  Sr20  1  0.22692931  0.75000078  0.00200076  1
  Sr  Sr21  1  0.72692935  0.75000078  0.49799885  1
  Sr  Sr22  1  0.27306977  0.25000109  0.50200111  1
  Sr  Sr23  1  0.77306982  0.25000109  0.99799920  1
