# generated using pymatgen
data_Pr2NdGe4(PdPt)2
_symmetry_space_group_name_H-M   'P 1'
_cell_length_a   13.07253508
_cell_length_b   13.07253508
_cell_length_c   13.07253508
_cell_angle_alpha   161.75359491
_cell_angle_beta   160.70374285
_cell_angle_gamma   26.67832350
_symmetry_Int_Tables_number   1
_chemical_formula_structural   Pr2NdGe4(PdPt)2
_chemical_formula_sum   'Pr2 Nd1 Ge4 Pd2 Pt2'
_cell_volume   231.05523813
_cell_formula_units_Z   1
loop_
 _symmetry_equiv_pos_site_id
 _symmetry_equiv_pos_as_xyz
  1  'x, y, z'
loop_
 _atom_site_type_symbol
 _atom_site_label
 _atom_site_symmetry_multiplicity
 _atom_site_fract_x
 _atom_site_fract_y
 _atom_site_fract_z
 _atom_site_occupancy
  Ge  Ge0  1  0.45081326  0.45081326  -0.00000000  1
  Ge  Ge1  1  0.54918662  0.54918662  -0.00000000  1
  Ge  Ge2  1  0.80608400  0.30608325  0.50000075  1
  Ge  Ge3  1  0.19391689  0.69391594  0.49999905  1
  Nd  Nd4  1  0.00000000  0.00000000  0.00000000  1
  Pd  Pd5  1  0.90399116  0.40399041  0.50000075  1
  Pd  Pd6  1  0.09600973  0.59600878  0.49999905  1
  Pr  Pr7  1  0.64762113  0.14762038  0.50000075  1
  Pr  Pr8  1  0.35237976  0.85237881  0.49999905  1
  Pt  Pt9  1  0.24960777  0.24960777  -0.00000000  1
  Pt  Pt10  1  0.75039212  0.75039212  0.00000000  1
