# generated using pymatgen
data_SmB(SbO4)2
_symmetry_space_group_name_H-M   'P 1'
_cell_length_a   12.63138423
_cell_length_b   7.29742541
_cell_length_c   12.75946363
_cell_angle_alpha   90.00000000
_cell_angle_beta   90.00000000
_cell_angle_gamma   90.00000000
_symmetry_Int_Tables_number   1
_chemical_formula_structural   SmB(SbO4)2
_chemical_formula_sum   'Sm8 B8 Sb16 O64'
_cell_volume   1176.12377329
_cell_formula_units_Z   8
loop_
 _symmetry_equiv_pos_site_id
 _symmetry_equiv_pos_as_xyz
  1  'x, y, z'
loop_
 _atom_site_type_symbol
 _atom_site_label
 _atom_site_symmetry_multiplicity
 _atom_site_fract_x
 _atom_site_fract_y
 _atom_site_fract_z
 _atom_site_occupancy
  B  B0  1  0.75580394  0.25000050  0.23704680  1
  B  B1  1  0.77574792  0.75000013  0.24757859  1
  B  B2  1  0.27574808  0.75000013  0.25242205  1
  B  B3  1  0.25580411  0.25000050  0.26295384  1
  B  B4  1  0.74419635  0.75000013  0.73704666  1
  B  B5  1  0.72425237  0.25000050  0.74757845  1
  B  B6  1  0.22425254  0.25000050  0.75242191  1
  B  B7  1  0.24419651  0.75000013  0.76295370  1
  O  O8  1  0.15352395  0.53668517  0.00677771  1
  O  O9  1  0.15352395  0.96331509  0.00677771  1
  O  O10  1  0.95406171  0.75000013  0.03300139  1
  O  O11  1  0.54992231  0.75000013  0.03377258  1
  O  O12  1  0.34977718  0.54265440  0.03530321  1
  O  O13  1  0.34977718  0.95734586  0.03530321  1
  O  O14  1  0.74174214  0.25000050  0.13325639  1
  O  O15  1  0.53473633  0.05004642  0.14902586  1
  O  O16  1  0.53473633  0.44995458  0.14902586  1
  O  O17  1  0.72280835  0.75000013  0.15422749  1
  O  O18  1  0.99489967  0.03681435  0.15456057  1
  O  O19  1  0.99489967  0.46318528  0.15456057  1
  O  O20  1  0.20307355  0.75000013  0.16602344  1
  O  O21  1  0.16625335  0.25000050  0.19818780  1
  O  O22  1  0.35114600  0.25000050  0.20760669  1
  O  O23  1  0.37747565  0.75000013  0.23158889  1
  O  O24  1  0.87747548  0.75000013  0.26841175  1
  O  O25  1  0.85114583  0.25000050  0.29239395  1
  O  O26  1  0.66625319  0.25000050  0.30181284  1
  O  O27  1  0.70307338  0.75000013  0.33397720  1
  O  O28  1  0.49489984  0.03681435  0.34544007  1
  O  O29  1  0.49489984  0.46318528  0.34544007  1
  O  O30  1  0.22280852  0.75000013  0.34577316  1
  O  O31  1  0.03473649  0.05004642  0.35097478  1
  O  O32  1  0.03473649  0.44995458  0.35097478  1
  O  O33  1  0.24174231  0.25000050  0.36674426  1
  O  O34  1  0.84977702  0.54265440  0.46469743  1
  O  O35  1  0.84977702  0.95734586  0.46469743  1
  O  O36  1  0.04992248  0.75000013  0.46622806  1
  O  O37  1  0.45406187  0.75000013  0.46699925  1
  O  O38  1  0.65352378  0.53668517  0.49322293  1
  O  O39  1  0.65352378  0.96331509  0.49322293  1
  O  O40  1  0.34647588  0.03668417  0.50677757  1
  O  O41  1  0.34647588  0.46331546  0.50677757  1
  O  O42  1  0.54593858  0.25000050  0.53300124  1
  O  O43  1  0.95007798  0.25000050  0.53377244  1
  O  O44  1  0.15022265  0.04265477  0.53530307  1
  O  O45  1  0.15022265  0.45734623  0.53530307  1
  O  O46  1  0.75825815  0.75000013  0.63325624  1
  O  O47  1  0.96526396  0.55004605  0.64902571  1
  O  O48  1  0.96526396  0.94995421  0.64902571  1
  O  O49  1  0.77719194  0.25000050  0.65422734  1
  O  O50  1  0.50510062  0.53681398  0.65456043  1
  O  O51  1  0.50510062  0.96318628  0.65456043  1
  O  O52  1  0.29692629  0.25000050  0.66602329  1
  O  O53  1  0.33374648  0.75000013  0.69818766  1
  O  O54  1  0.14885384  0.75000013  0.70760655  1
  O  O55  1  0.12252418  0.25000050  0.73158875  1
  O  O56  1  0.62252480  0.25000050  0.76841161  1
  O  O57  1  0.64885446  0.75000013  0.79239381  1
  O  O58  1  0.83374710  0.75000013  0.80181270  1
  O  O59  1  0.79692691  0.25000050  0.83397706  1
  O  O60  1  0.00510079  0.53681398  0.84543993  1
  O  O61  1  0.00510079  0.96318628  0.84543993  1
  O  O62  1  0.27719211  0.25000050  0.84577301  1
  O  O63  1  0.46526413  0.55004605  0.85097464  1
  O  O64  1  0.46526413  0.94995421  0.85097464  1
  O  O65  1  0.25825831  0.75000013  0.86674411  1
  O  O66  1  0.65022327  0.04265477  0.96469729  1
  O  O67  1  0.65022327  0.45734623  0.96469729  1
  O  O68  1  0.45007815  0.25000050  0.96622792  1
  O  O69  1  0.04593875  0.25000050  0.96699911  1
  O  O70  1  0.84647651  0.03668417  0.99322278  1
  O  O71  1  0.84647651  0.46331546  0.99322278  1
  Sb  Sb72  1  0.00000000  0.00000000  0.00000000  1
  Sb  Sb73  1  0.49999983  0.00000000  0.00000000  1
  Sb  Sb74  1  0.00000000  0.49999963  0.00000000  1
  Sb  Sb75  1  0.49999983  0.49999963  0.00000000  1
  Sb  Sb76  1  0.24971927  0.75000013  0.01784950  1
  Sb  Sb77  1  0.00791441  0.25000050  0.24833176  1
  Sb  Sb78  1  0.50791425  0.25000050  0.25166889  1
  Sb  Sb79  1  0.74971910  0.75000013  0.48215115  1
  Sb  Sb80  1  0.00000000  0.00000000  0.49999986  1
  Sb  Sb81  1  0.49999983  0.00000000  0.49999986  1
  Sb  Sb82  1  0.00000000  0.49999963  0.49999986  1
  Sb  Sb83  1  0.49999983  0.49999963  0.49999986  1
  Sb  Sb84  1  0.25028057  0.25000050  0.51784935  1
  Sb  Sb85  1  0.49208542  0.75000013  0.74833161  1
  Sb  Sb86  1  0.99208604  0.75000013  0.75166874  1
  Sb  Sb87  1  0.75028119  0.25000050  0.98215100  1
  Sm  Sm88  1  0.24938993  0.25000050  0.01937386  1
  Sm  Sm89  1  0.54582141  0.75000013  0.23732659  1
  Sm  Sm90  1  0.04582158  0.75000013  0.26267405  1
  Sm  Sm91  1  0.74938976  0.25000050  0.48062679  1
  Sm  Sm92  1  0.25060990  0.75000013  0.51937371  1
  Sm  Sm93  1  0.95417888  0.25000050  0.73732645  1
  Sm  Sm94  1  0.45417904  0.25000050  0.76267391  1
  Sm  Sm95  1  0.75061053  0.75000013  0.98062664  1
