# generated using pymatgen
data_MgScRe2
_symmetry_space_group_name_H-M   'P 1'
_cell_length_a   4.51838764
_cell_length_b   4.51838764
_cell_length_c   4.51838798
_cell_angle_alpha   60.00000542
_cell_angle_beta   60.00000542
_cell_angle_gamma   60.00000534
_symmetry_Int_Tables_number   1
_chemical_formula_structural   MgScRe2
_chemical_formula_sum   'Mg1 Sc1 Re2'
_cell_volume   65.22822319
_cell_formula_units_Z   1
loop_
 _symmetry_equiv_pos_site_id
 _symmetry_equiv_pos_as_xyz
  1  'x, y, z'
loop_
 _atom_site_type_symbol
 _atom_site_label
 _atom_site_symmetry_multiplicity
 _atom_site_fract_x
 _atom_site_fract_y
 _atom_site_fract_z
 _atom_site_occupancy
  Mg  Mg0  1  0.25000039  0.25000039  0.25000030  1
  Re  Re1  1  0.49999898  0.49999898  0.49999879  1
  Re  Re2  1  0.75000028  0.75000028  0.74999999  1
  Sc  Sc3  1  0.00000000  0.00000000  0.00000000  1
