# generated using pymatgen
data_NbBiPO
_symmetry_space_group_name_H-M   'P 1'
_cell_length_a   3.66778387
_cell_length_b   8.73867032
_cell_length_c   5.11945915
_cell_angle_alpha   90.00000000
_cell_angle_beta   90.00000000
_cell_angle_gamma   90.00000000
_symmetry_Int_Tables_number   1
_chemical_formula_structural   NbBiPO
_chemical_formula_sum   'Nb2 Bi2 P2 O2'
_cell_volume   164.08662191
_cell_formula_units_Z   2
loop_
 _symmetry_equiv_pos_site_id
 _symmetry_equiv_pos_as_xyz
  1  'x, y, z'
loop_
 _atom_site_type_symbol
 _atom_site_label
 _atom_site_symmetry_multiplicity
 _atom_site_fract_x
 _atom_site_fract_y
 _atom_site_fract_z
 _atom_site_occupancy
  Bi  Bi0  1  0.00000000  0.09968908  0.44929746  1
  Bi  Bi1  1  0.00000000  0.90031088  0.94929754  1
  Nb  Nb2  1  0.49999947  0.61804826  0.43567884  1
  Nb  Nb3  1  0.49999947  0.38195170  0.93567892  1
  O  O4  1  0.00000000  0.69993257  0.43489555  1
  O  O5  1  0.00000000  0.30006739  0.93489563  1
  P  P6  1  0.49999947  0.34047857  0.43412398  1
  P  P7  1  0.49999947  0.65952139  0.93412407  1
