# generated using pymatgen
data_NaTcAsO
_symmetry_space_group_name_H-M   'P 1'
_cell_length_a   3.35564305
_cell_length_b   6.41951543
_cell_length_c   6.97301112
_cell_angle_alpha   90.00000000
_cell_angle_beta   90.00000000
_cell_angle_gamma   90.00000000
_symmetry_Int_Tables_number   1
_chemical_formula_structural   NaTcAsO
_chemical_formula_sum   'Na2 Tc2 As2 O2'
_cell_volume   150.20983242
_cell_formula_units_Z   2
loop_
 _symmetry_equiv_pos_site_id
 _symmetry_equiv_pos_as_xyz
  1  'x, y, z'
loop_
 _atom_site_type_symbol
 _atom_site_label
 _atom_site_symmetry_multiplicity
 _atom_site_fract_x
 _atom_site_fract_y
 _atom_site_fract_z
 _atom_site_occupancy
  As  As0  1  0.00000000  0.84703745  0.30746258  1
  As  As1  1  0.00000000  0.15296326  0.80746322  1
  Na  Na2  1  0.49999955  0.39410140  0.08240199  1
  Na  Na3  1  0.49999955  0.60589931  0.58240263  1
  O  O4  1  0.49999955  0.30092302  0.39616171  1
  O  O5  1  0.49999955  0.69907613  0.89616235  1
  Tc  Tc6  1  0.00000000  0.17238217  0.46796856  1
  Tc  Tc7  1  0.00000000  0.82761854  0.96796920  1
