# generated using pymatgen
data_Zr2CdHg2
_symmetry_space_group_name_H-M   'P 1'
_cell_length_a   7.35607639
_cell_length_b   7.35607639
_cell_length_c   7.35607639
_cell_angle_alpha   146.45320641
_cell_angle_beta   146.45320641
_cell_angle_gamma   48.17408736
_symmetry_Int_Tables_number   1
_chemical_formula_structural   Zr2CdHg2
_chemical_formula_sum   'Zr2 Cd1 Hg2'
_cell_volume   121.05669986
_cell_formula_units_Z   1
loop_
 _symmetry_equiv_pos_site_id
 _symmetry_equiv_pos_as_xyz
  1  'x, y, z'
loop_
 _atom_site_type_symbol
 _atom_site_label
 _atom_site_symmetry_multiplicity
 _atom_site_fract_x
 _atom_site_fract_y
 _atom_site_fract_z
 _atom_site_occupancy
  Cd  Cd0  1  0.00000000  0.00000000  0.00000000  1
  Hg  Hg1  1  0.75000011  0.25000011  0.50000000  1
  Hg  Hg2  1  0.25000011  0.75000011  0.50000000  1
  Zr  Zr3  1  0.40446384  0.40446384  0.00000000  1
  Zr  Zr4  1  0.59553586  0.59553586  0.00000000  1
