# generated using pymatgen
data_Co2NiSe4
_symmetry_space_group_name_H-M   'P 1'
_cell_length_a   3.58192400
_cell_length_b   6.13233226
_cell_length_c   6.23806959
_cell_angle_alpha   117.92703934
_cell_angle_beta   106.68453384
_cell_angle_gamma   90.00000000
_symmetry_Int_Tables_number   1
_chemical_formula_structural   Co2NiSe4
_chemical_formula_sum   'Co2 Ni1 Se4'
_cell_volume   114.49579980
_cell_formula_units_Z   1
loop_
 _symmetry_equiv_pos_site_id
 _symmetry_equiv_pos_as_xyz
  1  'x, y, z'
loop_
 _atom_site_type_symbol
 _atom_site_label
 _atom_site_symmetry_multiplicity
 _atom_site_fract_x
 _atom_site_fract_y
 _atom_site_fract_z
 _atom_site_occupancy
  Co  Co0  1  0.73880079  0.71941209  0.47760271  1
  Co  Co1  1  0.26119849  0.28058660  0.52239697  1
  Ni  Ni2  1  0.00000000  0.00000000  0.00000000  1
  Se  Se3  1  0.12380667  0.45938488  0.24761334  1
  Se  Se4  1  0.63817263  0.97994262  0.27634638  1
  Se  Se5  1  0.36182712  0.02005794  0.72365424  1
  Se  Se6  1  0.87619177  0.54061381  0.75238466  1
