# generated using pymatgen
data_Ba(NiSb)2
_symmetry_space_group_name_H-M   'P 1'
_cell_length_a   9.30273329
_cell_length_b   4.40899649
_cell_length_c   11.33341769
_cell_angle_alpha   90.00000000
_cell_angle_beta   90.00000000
_cell_angle_gamma   90.00000000
_symmetry_Int_Tables_number   1
_chemical_formula_structural   Ba(NiSb)2
_chemical_formula_sum   'Ba4 Ni8 Sb8'
_cell_volume   464.84826890
_cell_formula_units_Z   4
loop_
 _symmetry_equiv_pos_site_id
 _symmetry_equiv_pos_as_xyz
  1  'x, y, z'
loop_
 _atom_site_type_symbol
 _atom_site_label
 _atom_site_symmetry_multiplicity
 _atom_site_fract_x
 _atom_site_fract_y
 _atom_site_fract_z
 _atom_site_occupancy
  Ba  Ba0  1  0.74296014  0.75000060  0.16160791  1
  Ba  Ba1  1  0.24295978  0.75000060  0.33839130  1
  Ba  Ba2  1  0.75703987  0.25000020  0.66160802  1
  Ba  Ba3  1  0.25703951  0.25000020  0.83839141  1
  Ni  Ni4  1  0.08745494  0.75000060  0.04068323  1
  Ni  Ni5  1  0.46668542  0.25000020  0.13222843  1
  Ni  Ni6  1  0.96668578  0.25000020  0.36777079  1
  Ni  Ni7  1  0.58745530  0.75000060  0.45931599  1
  Ni  Ni8  1  0.41254542  0.25000020  0.54068333  1
  Ni  Ni9  1  0.03331494  0.75000060  0.63222853  1
  Ni  Ni10  1  0.53331423  0.75000060  0.86777089  1
  Ni  Ni11  1  0.91254470  0.25000020  0.95931610  1
  Sb  Sb12  1  0.36684702  0.75000060  0.05513871  1
  Sb  Sb13  1  0.04385485  0.25000020  0.15175652  1
  Sb  Sb14  1  0.54385521  0.25000020  0.34824270  1
  Sb  Sb15  1  0.86684738  0.75000060  0.44486051  1
  Sb  Sb16  1  0.13315334  0.25000020  0.55513881  1
  Sb  Sb17  1  0.45614551  0.75000060  0.65175662  1
  Sb  Sb18  1  0.95614479  0.75000060  0.84824280  1
  Sb  Sb19  1  0.63315262  0.25000020  0.94486061  1
