# generated using pymatgen
data_PuBIr
_symmetry_space_group_name_H-M   'P 1'
_cell_length_a   4.25067625
_cell_length_b   4.25067625
_cell_length_c   4.25067625
_cell_angle_alpha   60.00000000
_cell_angle_beta   60.00000000
_cell_angle_gamma   60.00000000
_symmetry_Int_Tables_number   1
_chemical_formula_structural   PuBIr
_chemical_formula_sum   'Pu1 B1 Ir1'
_cell_volume   54.30740950
_cell_formula_units_Z   1
loop_
 _symmetry_equiv_pos_site_id
 _symmetry_equiv_pos_as_xyz
  1  'x, y, z'
loop_
 _atom_site_type_symbol
 _atom_site_label
 _atom_site_symmetry_multiplicity
 _atom_site_fract_x
 _atom_site_fract_y
 _atom_site_fract_z
 _atom_site_occupancy
  B  B0  1  0.00000000  0.00000000  0.00000000  1
  Ir  Ir1  1  0.49999967  0.49999967  0.49999967  1
  Pu  Pu2  1  0.74999950  0.74999950  0.74999950  1
