# generated using pymatgen
data_NiAg2Bi
_symmetry_space_group_name_H-M   'P 1'
_cell_length_a   4.72972978
_cell_length_b   4.72972978
_cell_length_c   4.72972978
_cell_angle_alpha   60.00000000
_cell_angle_beta   60.00000000
_cell_angle_gamma   60.00000000
_symmetry_Int_Tables_number   1
_chemical_formula_structural   NiAg2Bi
_chemical_formula_sum   'Ni1 Ag2 Bi1'
_cell_volume   74.81591464
_cell_formula_units_Z   1
loop_
 _symmetry_equiv_pos_site_id
 _symmetry_equiv_pos_as_xyz
  1  'x, y, z'
loop_
 _atom_site_type_symbol
 _atom_site_label
 _atom_site_symmetry_multiplicity
 _atom_site_fract_x
 _atom_site_fract_y
 _atom_site_fract_z
 _atom_site_occupancy
  Ag  Ag0  1  0.00000000  0.00000000  0.00000000  1
  Ag  Ag1  1  0.75000060  0.75000060  0.75000060  1
  Bi  Bi2  1  0.49999940  0.49999940  0.49999940  1
  Ni  Ni3  1  0.24999970  0.24999970  0.24999970  1
