# generated using pymatgen
data_Sr2AgAu2
_symmetry_space_group_name_H-M   'P 1'
_cell_length_a   5.93256703
_cell_length_b   5.93256703
_cell_length_c   4.52853521
_cell_angle_alpha   111.27234836
_cell_angle_beta   111.27234836
_cell_angle_gamma   69.81326592
_symmetry_Int_Tables_number   1
_chemical_formula_structural   Sr2AgAu2
_chemical_formula_sum   'Sr2 Ag1 Au2'
_cell_volume   134.15800542
_cell_formula_units_Z   1
loop_
 _symmetry_equiv_pos_site_id
 _symmetry_equiv_pos_as_xyz
  1  'x, y, z'
loop_
 _atom_site_type_symbol
 _atom_site_label
 _atom_site_symmetry_multiplicity
 _atom_site_fract_x
 _atom_site_fract_y
 _atom_site_fract_z
 _atom_site_occupancy
  Ag  Ag0  1  0.20136912  0.20136912  0.20071243  1
  Au  Au1  1  0.91322613  0.48586203  0.69996600  1
  Au  Au2  1  0.48586203  0.91322613  0.69996600  1
  Sr  Sr3  1  0.91179285  0.91179285  0.41011424  1
  Sr  Sr4  1  0.48775270  0.48775270  0.98924404  1
