# generated using pymatgen
data_AgHg2PO4
_symmetry_space_group_name_H-M   'P 1'
_cell_length_a   9.29889500
_cell_length_b   8.61112000
_cell_length_c   6.24841600
_cell_angle_alpha   90.00000000
_cell_angle_beta   90.00000000
_cell_angle_gamma   90.00000000
_symmetry_Int_Tables_number   1
_chemical_formula_structural   AgHg2PO4
_chemical_formula_sum   'Ag4 Hg8 P4 O16'
_cell_volume   500.33504239
_cell_formula_units_Z   4
loop_
 _symmetry_equiv_pos_site_id
 _symmetry_equiv_pos_as_xyz
  1  'x, y, z'
loop_
 _atom_site_type_symbol
 _atom_site_label
 _atom_site_symmetry_multiplicity
 _atom_site_fract_x
 _atom_site_fract_y
 _atom_site_fract_z
 _atom_site_occupancy
  Ag  Ag0  1  0.34777465  0.02661907  0.00000000  1
  Ag  Ag1  1  0.84777492  0.47338093  0.00000000  1
  Ag  Ag2  1  0.15222561  0.52661907  0.00000000  1
  Ag  Ag3  1  0.65222481  0.97338093  0.00000000  1
  Hg  Hg4  1  0.52821222  0.24629549  0.21263469  1
  Hg  Hg5  1  0.02821303  0.25370451  0.21263469  1
  Hg  Hg6  1  0.97178751  0.74629549  0.21263469  1
  Hg  Hg7  1  0.47178724  0.75370451  0.21263469  1
  Hg  Hg8  1  0.52821222  0.24629549  0.78736435  1
  Hg  Hg9  1  0.02821303  0.25370451  0.78736435  1
  Hg  Hg10  1  0.97178751  0.74629549  0.78736435  1
  Hg  Hg11  1  0.47178724  0.75370451  0.78736435  1
  O  O12  1  0.19726107  0.05253091  0.29050883  1
  O  O13  1  0.69726134  0.44746909  0.29050883  1
  O  O14  1  0.30273920  0.55253091  0.29050883  1
  O  O15  1  0.80273839  0.94746909  0.29050883  1
  O  O16  1  0.62911884  0.11139898  0.50000032  1
  O  O17  1  0.89901327  0.17402034  0.50000032  1
  O  O18  1  0.39901300  0.32597966  0.50000032  1
  O  O19  1  0.12911857  0.38860102  0.50000032  1
  O  O20  1  0.87088089  0.61139898  0.50000032  1
  O  O21  1  0.60098754  0.67402034  0.50000032  1
  O  O22  1  0.10098727  0.82597966  0.50000032  1
  O  O23  1  0.37088063  0.88860102  0.50000032  1
  O  O24  1  0.19726107  0.05253091  0.70949181  1
  O  O25  1  0.69726134  0.44746909  0.70949181  1
  O  O26  1  0.30273920  0.55253091  0.70949181  1
  O  O27  1  0.80273839  0.94746909  0.70949181  1
  P  P28  1  0.78323607  0.04151841  0.50000032  1
  P  P29  1  0.28323580  0.45848159  0.50000032  1
  P  P30  1  0.71676366  0.54151841  0.50000032  1
  P  P31  1  0.21676447  0.95848159  0.50000032  1
