# generated using pymatgen
data_BaRe2(H2O3)4
_symmetry_space_group_name_H-M   'P 1'
_cell_length_a   7.21025227
_cell_length_b   12.09135419
_cell_length_c   13.80525998
_cell_angle_alpha   90.00000000
_cell_angle_beta   120.85341380
_cell_angle_gamma   90.00000000
_symmetry_Int_Tables_number   1
_chemical_formula_structural   BaRe2(H2O3)4
_chemical_formula_sum   'Ba4 Re8 H32 O48'
_cell_volume   1033.24014999
_cell_formula_units_Z   4
loop_
 _symmetry_equiv_pos_site_id
 _symmetry_equiv_pos_as_xyz
  1  'x, y, z'
loop_
 _atom_site_type_symbol
 _atom_site_label
 _atom_site_symmetry_multiplicity
 _atom_site_fract_x
 _atom_site_fract_y
 _atom_site_fract_z
 _atom_site_occupancy
  Ba  Ba0  1  0.32337534  0.25074115  0.07160908  1
  Ba  Ba1  1  0.67662454  0.75074056  0.42839136  1
  Ba  Ba2  1  0.32337608  0.24925909  0.57160868  1
  Ba  Ba3  1  0.67662390  0.74925933  0.92839095  1
  H  H4  1  0.88392460  0.51530870  0.10239066  1
  H  H5  1  0.96938422  0.65414261  0.19665075  1
  H  H6  1  0.85846242  0.46016434  0.19910780  1
  H  H7  1  0.61052615  0.86517522  0.19939975  1
  H  H8  1  0.86098489  0.76597624  0.20395779  1
  H  H9  1  0.29867737  0.89412814  0.21315151  1
  H  H10  1  0.15198806  0.40444436  0.21395563  1
  H  H11  1  0.16871799  0.80844543  0.24133681  1
  H  H12  1  0.83128105  0.30844519  0.25866279  1
  H  H13  1  0.84801099  0.90444377  0.28604397  1
  H  H14  1  0.70132389  0.39412790  0.28684893  1
  H  H15  1  0.13901499  0.26597600  0.29604264  1
  H  H16  1  0.38947290  0.36517498  0.30059985  1
  H  H17  1  0.14153746  0.96016375  0.30089263  1
  H  H18  1  0.03061482  0.15414237  0.30334885  1
  H  H19  1  0.11607528  0.01530846  0.39760978  1
  H  H20  1  0.88392396  0.98469119  0.60239025  1
  H  H21  1  0.96938441  0.84585728  0.69665119  1
  H  H22  1  0.85846178  0.03983590  0.69910740  1
  H  H23  1  0.61052634  0.63482468  0.69940019  1
  H  H24  1  0.86098425  0.73402366  0.70395739  1
  H  H25  1  0.29867673  0.60587176  0.71315111  1
  H  H26  1  0.15198825  0.09555588  0.71395607  1
  H  H27  1  0.16871818  0.69155447  0.74133725  1
  H  H28  1  0.83128124  0.19155423  0.75866322  1
  H  H29  1  0.84801118  0.59555612  0.78604441  1
  H  H30  1  0.70132325  0.10587152  0.78684852  1
  H  H31  1  0.13901574  0.23402342  0.79604224  1
  H  H32  1  0.38947447  0.13482444  0.80060029  1
  H  H33  1  0.14153682  0.53983614  0.80089223  1
  H  H34  1  0.03061501  0.34585704  0.80334929  1
  H  H35  1  0.11607464  0.48469095  0.89760938  1
  O  O36  1  0.10934372  0.69893743  0.01587385  1
  O  O37  1  0.24501947  0.47435878  0.04740469  1
  O  O38  1  0.52318616  0.64539090  0.05237112  1
  O  O39  1  0.73364651  0.93588938  0.05991105  1
  O  O40  1  0.07087301  0.08575135  0.09578225  1
  O  O41  1  0.35383273  0.90026806  0.10652260  1
  O  O42  1  0.70739233  0.16181480  0.10755706  1
  O  O43  1  0.94750384  0.73264168  0.17269105  1
  O  O44  1  0.96216073  0.50348124  0.18475612  1
  O  O45  1  0.71617165  0.36780992  0.22324469  1
  O  O46  1  0.44530217  0.62544525  0.23476637  1
  O  O47  1  0.25065976  0.33882392  0.23608687  1
  O  O48  1  0.74934068  0.83882333  0.26391272  1
  O  O49  1  0.55469909  0.12544501  0.26523407  1
  O  O50  1  0.28382879  0.86780933  0.27675490  1
  O  O51  1  0.03784053  0.00348100  0.31524432  1
  O  O52  1  0.05249743  0.23264144  0.32730939  1
  O  O53  1  0.29260810  0.66181421  0.39244253  1
  O  O54  1  0.64616770  0.40026782  0.39347700  1
  O  O55  1  0.92912826  0.58575077  0.40421819  1
  O  O56  1  0.26635336  0.43588914  0.44008939  1
  O  O57  1  0.47681371  0.14539066  0.44762932  1
  O  O58  1  0.75498040  0.97435819  0.45259575  1
  O  O59  1  0.89065671  0.19893719  0.48412575  1
  O  O60  1  0.10934391  0.80106247  0.51587429  1
  O  O61  1  0.24502022  0.02564146  0.54740429  1
  O  O62  1  0.52318691  0.85460899  0.55237072  1
  O  O63  1  0.73364588  0.56411051  0.55991065  1
  O  O64  1  0.07087237  0.41424889  0.59578185  1
  O  O65  1  0.35383292  0.59973183  0.60652304  1
  O  O66  1  0.70739252  0.33818545  0.60755750  1
  O  O67  1  0.94750320  0.76735822  0.67269065  1
  O  O68  1  0.96216009  0.99651865  0.68475571  1
  O  O69  1  0.71617184  0.13219032  0.72324513  1
  O  O70  1  0.44530154  0.87455465  0.73476597  1
  O  O71  1  0.25065995  0.16117632  0.73608731  1
  O  O72  1  0.74934087  0.66117656  0.76391316  1
  O  O73  1  0.55469845  0.37455441  0.76523366  1
  O  O74  1  0.28382898  0.63219056  0.77675534  1
  O  O75  1  0.03783989  0.49651841  0.81524392  1
  O  O76  1  0.05249679  0.26735798  0.82730898  1
  O  O77  1  0.29260829  0.83818569  0.89244297  1
  O  O78  1  0.64616707  0.09973159  0.89347659  1
  O  O79  1  0.92912762  0.91424913  0.90421778  1
  O  O80  1  0.26635272  0.06411027  0.94008898  1
  O  O81  1  0.47681307  0.35460875  0.94762891  1
  O  O82  1  0.75497977  0.52564170  0.95259534  1
  O  O83  1  0.89065690  0.30106223  0.98412619  1
  Re  Re84  1  0.79165274  0.07154616  0.03928509  1
  Re  Re85  1  0.33222440  0.61149561  0.08921856  1
  Re  Re86  1  0.66777547  0.11149537  0.41078188  1
  Re  Re87  1  0.20834770  0.57154558  0.46071450  1
  Re  Re88  1  0.79165293  0.42845408  0.53928553  1
  Re  Re89  1  0.33222377  0.88850428  0.58921816  1
  Re  Re90  1  0.66777483  0.38850404  0.91078147  1
  Re  Re91  1  0.20834789  0.92845432  0.96071494  1
