# generated using pymatgen
data_TaHg2Mo
_symmetry_space_group_name_H-M   'P 1'
_cell_length_a   4.73856061
_cell_length_b   4.73856061
_cell_length_c   4.73856061
_cell_angle_alpha   60.00000000
_cell_angle_beta   60.00000000
_cell_angle_gamma   60.00000000
_symmetry_Int_Tables_number   1
_chemical_formula_structural   TaHg2Mo
_chemical_formula_sum   'Ta1 Hg2 Mo1'
_cell_volume   75.23576179
_cell_formula_units_Z   1
loop_
 _symmetry_equiv_pos_site_id
 _symmetry_equiv_pos_as_xyz
  1  'x, y, z'
loop_
 _atom_site_type_symbol
 _atom_site_label
 _atom_site_symmetry_multiplicity
 _atom_site_fract_x
 _atom_site_fract_y
 _atom_site_fract_z
 _atom_site_occupancy
  Hg  Hg0  1  0.00000000  0.00000000  0.00000000  1
  Hg  Hg1  1  0.24999938  0.24999938  0.24999938  1
  Mo  Mo2  1  0.50000025  0.50000025  0.50000025  1
  Ta  Ta3  1  0.74999963  0.74999963  0.74999963  1
