# generated using pymatgen
data_Mg2ReMo
_symmetry_space_group_name_H-M   'P 1'
_cell_length_a   4.49748741
_cell_length_b   4.49748741
_cell_length_c   4.49748741
_cell_angle_alpha   60.00000000
_cell_angle_beta   60.00000000
_cell_angle_gamma   60.00000000
_symmetry_Int_Tables_number   1
_chemical_formula_structural   Mg2ReMo
_chemical_formula_sum   'Mg2 Re1 Mo1'
_cell_volume   64.32723291
_cell_formula_units_Z   1
loop_
 _symmetry_equiv_pos_site_id
 _symmetry_equiv_pos_as_xyz
  1  'x, y, z'
loop_
 _atom_site_type_symbol
 _atom_site_label
 _atom_site_symmetry_multiplicity
 _atom_site_fract_x
 _atom_site_fract_y
 _atom_site_fract_z
 _atom_site_occupancy
  Mg  Mg0  1  0.24999970  0.24999970  0.24999970  1
  Mg  Mg1  1  0.49999940  0.49999940  0.49999940  1
  Mo  Mo2  1  0.75000067  0.75000067  0.75000067  1
  Re  Re3  1  0.00000000  0.00000000  0.00000000  1
