# generated using pymatgen
data_ZrH
_symmetry_space_group_name_H-M   'P 1'
_cell_length_a   3.26416900
_cell_length_b   3.26416900
_cell_length_c   3.39609047
_cell_angle_alpha   118.72313259
_cell_angle_beta   118.72313259
_cell_angle_gamma   90.00000000
_symmetry_Int_Tables_number   1
_chemical_formula_structural   ZrH
_chemical_formula_sum   'Zr1 H1'
_cell_volume   26.54312937
_cell_formula_units_Z   1
loop_
 _symmetry_equiv_pos_site_id
 _symmetry_equiv_pos_as_xyz
  1  'x, y, z'
loop_
 _atom_site_type_symbol
 _atom_site_label
 _atom_site_symmetry_multiplicity
 _atom_site_fract_x
 _atom_site_fract_y
 _atom_site_fract_z
 _atom_site_occupancy
  H  H0  1  0.24999907  0.74999769  0.49999799  1
  Zr  Zr1  1  0.00000000  0.00000000  0.00000000  1
