# generated using pymatgen
data_Ta
_symmetry_space_group_name_H-M   'P 1'
_cell_length_a   8.89205959
_cell_length_b   8.89205959
_cell_length_c   8.89205959
_cell_angle_alpha   109.47122063
_cell_angle_beta   109.47122063
_cell_angle_gamma   109.47122063
_symmetry_Int_Tables_number   1
_chemical_formula_structural   Ta
_chemical_formula_sum   Ta29
_cell_volume   541.23416479
_cell_formula_units_Z   29
loop_
 _symmetry_equiv_pos_site_id
 _symmetry_equiv_pos_as_xyz
  1  'x, y, z'
loop_
 _atom_site_type_symbol
 _atom_site_label
 _atom_site_symmetry_multiplicity
 _atom_site_fract_x
 _atom_site_fract_y
 _atom_site_fract_z
 _atom_site_occupancy
  Ta  Ta0  1  0.00000000  0.00000000  0.00000000  1
  Ta  Ta1  1  0.37575044  0.00000000  0.00000000  1
  Ta  Ta2  1  0.60387142  0.32216377  0.00000000  1
  Ta  Ta3  1  -0.00000000  0.37575044  0.00000000  1
  Ta  Ta4  1  0.32216377  0.60387142  0.00000000  1
  Ta  Ta5  1  0.81286049  0.62975169  -0.00000000  1
  Ta  Ta6  1  0.62975169  0.81286049  -0.00000000  1
  Ta  Ta7  1  0.37024773  0.37024773  0.18310880  1
  Ta  Ta8  1  0.81689062  0.18713893  0.18713893  1
  Ta  Ta9  1  0.18713893  0.81689062  0.18713893  1
  Ta  Ta10  1  0.67783564  0.67783564  0.28170764  1
  Ta  Ta11  1  0.60387142  0.00000000  0.32216377  1
  Ta  Ta12  1  -0.00000000  0.60387142  0.32216377  1
  Ta  Ta13  1  0.37024773  0.18310880  0.37024773  1
  Ta  Ta14  1  0.18310880  0.37024773  0.37024773  1
  Ta  Ta15  1  0.00000000  0.00000000  0.37575044  1
  Ta  Ta16  1  0.71829177  0.39612800  0.39612800  1
  Ta  Ta17  1  0.39612800  0.71829177  0.39612800  1
  Ta  Ta18  1  0.32216377  0.00000000  0.60387142  1
  Ta  Ta19  1  -0.00000000  0.32216377  0.60387142  1
  Ta  Ta20  1  0.62424898  0.62424898  0.62424898  1
  Ta  Ta21  1  0.81286049  0.00000000  0.62975169  1
  Ta  Ta22  1  -0.00000000  0.81286049  0.62975169  1
  Ta  Ta23  1  0.67783564  0.28170764  0.67783564  1
  Ta  Ta24  1  0.28170764  0.67783564  0.67783564  1
  Ta  Ta25  1  0.39612800  0.39612800  0.71829177  1
  Ta  Ta26  1  0.62975169  0.00000000  0.81286049  1
  Ta  Ta27  1  0.00000000  0.62975169  0.81286049  1
  Ta  Ta28  1  0.18713893  0.18713893  0.81689062  1
