# generated using pymatgen
data_Th(CoAs)2
_symmetry_space_group_name_H-M   'P 1'
_cell_length_a   4.18127500
_cell_length_b   4.18127500
_cell_length_c   9.35560900
_cell_angle_alpha   90.00000000
_cell_angle_beta   90.00000000
_cell_angle_gamma   90.00000000
_symmetry_Int_Tables_number   1
_chemical_formula_structural   Th(CoAs)2
_chemical_formula_sum   'Th2 Co4 As4'
_cell_volume   163.56467934
_cell_formula_units_Z   2
loop_
 _symmetry_equiv_pos_site_id
 _symmetry_equiv_pos_as_xyz
  1  'x, y, z'
loop_
 _atom_site_type_symbol
 _atom_site_label
 _atom_site_symmetry_multiplicity
 _atom_site_fract_x
 _atom_site_fract_y
 _atom_site_fract_z
 _atom_site_occupancy
  As  As0  1  0.25000030  0.25000030  0.13182252  1
  As  As1  1  0.75000090  0.25000030  0.49999952  1
  As  As2  1  0.25000030  0.75000090  0.49999952  1
  As  As3  1  0.75000090  0.75000090  0.86817758  1
  Co  Co4  1  0.75000090  0.25000030  0.00000000  1
  Co  Co5  1  0.25000030  0.75000090  0.00000000  1
  Co  Co6  1  0.25000030  0.25000030  0.38469863  1
  Co  Co7  1  0.75000090  0.75000090  0.61530147  1
  Th  Th8  1  0.75000090  0.75000090  0.24575952  1
  Th  Th9  1  0.25000030  0.25000030  0.75424058  1
