# generated using pymatgen
data_MgScInFe
_symmetry_space_group_name_H-M   'P 1'
_cell_length_a   4.75029103
_cell_length_b   4.75029103
_cell_length_c   4.75029103
_cell_angle_alpha   60.00000000
_cell_angle_beta   60.00000000
_cell_angle_gamma   60.00000000
_symmetry_Int_Tables_number   1
_chemical_formula_structural   MgScInFe
_chemical_formula_sum   'Mg1 Sc1 In1 Fe1'
_cell_volume   75.79588979
_cell_formula_units_Z   1
loop_
 _symmetry_equiv_pos_site_id
 _symmetry_equiv_pos_as_xyz
  1  'x, y, z'
loop_
 _atom_site_type_symbol
 _atom_site_label
 _atom_site_symmetry_multiplicity
 _atom_site_fract_x
 _atom_site_fract_y
 _atom_site_fract_z
 _atom_site_occupancy
  Fe  Fe0  1  0.75000082  0.75000082  0.75000082  1
  In  In1  1  0.24999978  0.24999978  0.24999978  1
  Mg  Mg2  1  0.49999955  0.49999955  0.49999955  1
  Sc  Sc3  1  0.00000000  0.00000000  0.00000000  1
