# generated using pymatgen
data_GdHfAsO
_symmetry_space_group_name_H-M   'P 1'
_cell_length_a   3.99825341
_cell_length_b   7.41990832
_cell_length_c   5.84796560
_cell_angle_alpha   90.00000000
_cell_angle_beta   90.00000000
_cell_angle_gamma   90.00000000
_symmetry_Int_Tables_number   1
_chemical_formula_structural   GdHfAsO
_chemical_formula_sum   'Gd2 Hf2 As2 O2'
_cell_volume   173.48968726
_cell_formula_units_Z   2
loop_
 _symmetry_equiv_pos_site_id
 _symmetry_equiv_pos_as_xyz
  1  'x, y, z'
loop_
 _atom_site_type_symbol
 _atom_site_label
 _atom_site_symmetry_multiplicity
 _atom_site_fract_x
 _atom_site_fract_y
 _atom_site_fract_z
 _atom_site_occupancy
  As  As0  1  0.00000000  0.83634591  0.44764456  1
  As  As1  1  0.00000000  0.16365431  0.94764408  1
  Gd  Gd2  1  0.00000000  0.22367392  0.45186654  1
  Gd  Gd3  1  0.00000000  0.77632630  0.95186606  1
  Hf  Hf4  1  0.50000082  0.39390783  0.00052326  1
  Hf  Hf5  1  0.50000082  0.60609239  0.50052278  1
  O  O6  1  0.50000082  0.35039517  0.35396070  1
  O  O7  1  0.50000082  0.64960506  0.85396022  1
