# generated using pymatgen
data_Gd(PPd4)2
_symmetry_space_group_name_H-M   'P 1'
_cell_length_a   6.29451280
_cell_length_b   6.29451280
_cell_length_c   9.29903823
_cell_angle_alpha   125.06587843
_cell_angle_beta   125.06587843
_cell_angle_gamma   37.81275447
_symmetry_Int_Tables_number   1
_chemical_formula_structural   Gd(PPd4)2
_chemical_formula_sum   'Gd1 P2 Pd8'
_cell_volume   179.46026187
_cell_formula_units_Z   1
loop_
 _symmetry_equiv_pos_site_id
 _symmetry_equiv_pos_as_xyz
  1  'x, y, z'
loop_
 _atom_site_type_symbol
 _atom_site_label
 _atom_site_symmetry_multiplicity
 _atom_site_fract_x
 _atom_site_fract_y
 _atom_site_fract_z
 _atom_site_occupancy
  Gd  Gd0  1  0.50000005  0.50000005  0.00000000  1
  P  P1  1  0.93972316  0.93972316  0.20784208  1
  P  P2  1  0.06027668  0.06027668  0.79215724  1
  Pd  Pd3  1  0.23416489  0.23416489  0.09420998  1
  Pd  Pd4  1  0.17896289  0.17896289  0.34836792  1
  Pd  Pd5  1  0.84004829  0.84004829  0.35619145  1
  Pd  Pd6  1  0.52673240  0.52673240  0.36964577  1
  Pd  Pd7  1  0.47326808  0.47326808  0.63035491  1
  Pd  Pd8  1  0.15995155  0.15995155  0.64380787  1
  Pd  Pd9  1  0.82103675  0.82103675  0.65163276  1
  Pd  Pd10  1  0.76583495  0.76583495  0.90578935  1
