# generated using pymatgen
data_BAsIrO
_symmetry_space_group_name_H-M   'P 1'
_cell_length_a   2.67821293
_cell_length_b   6.62615503
_cell_length_c   5.59882882
_cell_angle_alpha   90.00000000
_cell_angle_beta   90.00000000
_cell_angle_gamma   90.00000000
_symmetry_Int_Tables_number   1
_chemical_formula_structural   BAsIrO
_chemical_formula_sum   'B2 As2 Ir2 O2'
_cell_volume   99.35823862
_cell_formula_units_Z   2
loop_
 _symmetry_equiv_pos_site_id
 _symmetry_equiv_pos_as_xyz
  1  'x, y, z'
loop_
 _atom_site_type_symbol
 _atom_site_label
 _atom_site_symmetry_multiplicity
 _atom_site_fract_x
 _atom_site_fract_y
 _atom_site_fract_z
 _atom_site_occupancy
  As  As0  1  0.00000000  0.81361060  0.38781146  1
  As  As1  1  0.00000000  0.18639015  0.88781068  1
  B  B2  1  0.00000000  0.88270648  0.02234574  1
  B  B3  1  0.00000000  0.11729427  0.52234496  1
  Ir  Ir4  1  0.50000132  0.51542259  0.42249193  1
  Ir  Ir5  1  0.50000132  0.48457665  0.92249293  1
  O  O6  1  0.50000132  0.19091917  0.42134705  1
  O  O7  1  0.50000132  0.80908007  0.92134626  1
