# generated using pymatgen
data_RbLuZnTe3
_symmetry_space_group_name_H-M   'P 1'
_cell_length_a   10.15664836
_cell_length_b   10.15664836
_cell_length_c   9.48574960
_cell_angle_alpha   100.43543237
_cell_angle_beta   100.43543237
_cell_angle_gamma   25.20139486
_symmetry_Int_Tables_number   1
_chemical_formula_structural   RbLuZnTe3
_chemical_formula_sum   'Rb2 Lu2 Zn2 Te6'
_cell_volume   409.41869186
_cell_formula_units_Z   2
loop_
 _symmetry_equiv_pos_site_id
 _symmetry_equiv_pos_as_xyz
  1  'x, y, z'
loop_
 _atom_site_type_symbol
 _atom_site_label
 _atom_site_symmetry_multiplicity
 _atom_site_fract_x
 _atom_site_fract_y
 _atom_site_fract_z
 _atom_site_occupancy
  Lu  Lu0  1  0.17029086  0.17029086  0.06336806  1
  Lu  Lu1  1  0.82970912  0.82970912  0.93663167  1
  Rb  Rb2  1  0.85674675  0.85674675  0.43768320  1
  Rb  Rb3  1  0.14325332  0.14325332  0.56231760  1
  Te  Te4  1  0.00000000  0.00000000  0.00000000  1
  Te  Te5  1  0.32398165  0.32398165  0.14524175  1
  Te  Te6  1  0.66482798  0.66482798  0.27665013  1
  Te  Te7  1  0.49999999  0.49999999  0.49999986  1
  Te  Te8  1  0.33517209  0.33517209  0.72335067  1
  Te  Te9  1  0.67601833  0.67601833  0.85475798  1
  Zn  Zn10  1  0.52914128  0.52914128  0.22632582  1
  Zn  Zn11  1  0.47085870  0.47085870  0.77367390  1
