# generated using pymatgen
data_Sr(CuGe)2
_symmetry_space_group_name_H-M   'P 1'
_cell_length_a   4.24942891
_cell_length_b   4.24942891
_cell_length_c   6.05120703
_cell_angle_alpha   110.55598269
_cell_angle_beta   110.55598269
_cell_angle_gamma   90.00000000
_symmetry_Int_Tables_number   1
_chemical_formula_structural   Sr(CuGe)2
_chemical_formula_sum   'Sr1 Cu2 Ge2'
_cell_volume   94.84697344
_cell_formula_units_Z   1
loop_
 _symmetry_equiv_pos_site_id
 _symmetry_equiv_pos_as_xyz
  1  'x, y, z'
loop_
 _atom_site_type_symbol
 _atom_site_label
 _atom_site_symmetry_multiplicity
 _atom_site_fract_x
 _atom_site_fract_y
 _atom_site_fract_z
 _atom_site_occupancy
  Cu  Cu0  1  0.62070451  0.62070451  0.24140902  1
  Cu  Cu1  1  0.37929597  0.37929597  0.75859193  1
  Ge  Ge2  1  0.75000024  0.25000024  0.50000048  1
  Ge  Ge3  1  0.25000024  0.75000024  0.50000048  1
  Sr  Sr4  1  0.00000000  0.00000000  0.00000000  1
