# generated using pymatgen
data_Pd8Se
_symmetry_space_group_name_H-M   'P 1'
_cell_length_a   7.54477048
_cell_length_b   7.54477048
_cell_length_c   2.84953477
_cell_angle_alpha   90.00000000
_cell_angle_beta   90.00000000
_cell_angle_gamma   120.00000000
_symmetry_Int_Tables_number   1
_chemical_formula_structural   Pd8Se
_chemical_formula_sum   'Pd8 Se1'
_cell_volume   140.47422952
_cell_formula_units_Z   1
loop_
 _symmetry_equiv_pos_site_id
 _symmetry_equiv_pos_as_xyz
  1  'x, y, z'
loop_
 _atom_site_type_symbol
 _atom_site_label
 _atom_site_symmetry_multiplicity
 _atom_site_fract_x
 _atom_site_fract_y
 _atom_site_fract_z
 _atom_site_occupancy
  Pd  Pd0  1  0.63298943  0.00000000  0.00000000  1
  Pd  Pd1  1  0.36701093  0.36701004  0.00000000  1
  Pd  Pd2  1  0.00000000  0.63298951  0.00000000  1
  Pd  Pd3  1  0.28896969  0.00000000  0.50000092  1
  Pd  Pd4  1  0.00000000  0.28897011  0.50000092  1
  Pd  Pd5  1  0.66666748  0.33333370  0.50000092  1
  Pd  Pd6  1  0.33333370  0.66666739  0.50000092  1
  Pd  Pd7  1  0.71103061  0.71103097  0.50000092  1
  Se  Se8  1  0.00000000  0.00000000  0.00000000  1
