# generated using pymatgen
data_AlAgPO
_symmetry_space_group_name_H-M   'P 1'
_cell_length_a   2.97466708
_cell_length_b   6.79080046
_cell_length_c   6.51927140
_cell_angle_alpha   90.00000000
_cell_angle_beta   90.00000000
_cell_angle_gamma   90.00000000
_symmetry_Int_Tables_number   1
_chemical_formula_structural   AlAgPO
_chemical_formula_sum   'Al2 Ag2 P2 O2'
_cell_volume   131.69169826
_cell_formula_units_Z   2
loop_
 _symmetry_equiv_pos_site_id
 _symmetry_equiv_pos_as_xyz
  1  'x, y, z'
loop_
 _atom_site_type_symbol
 _atom_site_label
 _atom_site_symmetry_multiplicity
 _atom_site_fract_x
 _atom_site_fract_y
 _atom_site_fract_z
 _atom_site_occupancy
  Ag  Ag0  1  0.49999881  0.85721264  0.03807787  1
  Ag  Ag1  1  0.49999881  0.14278729  0.53807853  1
  Al  Al2  1  0.00000000  0.68195642  0.47361428  1
  Al  Al3  1  0.00000000  0.31804351  0.97361493  1
  O  O4  1  0.49999881  0.80674878  0.40655157  1
  O  O5  1  0.49999881  0.19325115  0.90655223  1
  P  P6  1  0.00000000  0.35931110  0.33575224  1
  P  P7  1  0.00000000  0.64068883  0.83575290  1
