# generated using pymatgen
data_SrAcTe2
_symmetry_space_group_name_H-M   'P 1'
_cell_length_a   4.59868062
_cell_length_b   4.59868062
_cell_length_c   8.71720460
_cell_angle_alpha   74.70609902
_cell_angle_beta   74.70609904
_cell_angle_gamma   59.99999999
_symmetry_Int_Tables_number   1
_chemical_formula_structural   SrAcTe2
_chemical_formula_sum   'Sr1 Ac1 Te2'
_cell_volume   152.06663249
_cell_formula_units_Z   1
loop_
 _symmetry_equiv_pos_site_id
 _symmetry_equiv_pos_as_xyz
  1  'x, y, z'
loop_
 _atom_site_type_symbol
 _atom_site_label
 _atom_site_symmetry_multiplicity
 _atom_site_fract_x
 _atom_site_fract_y
 _atom_site_fract_z
 _atom_site_occupancy
  Sr  Sr0  1  0.49645259  0.49645259  0.51064222  1
  Ac  Ac1  1  0.66904651  0.66904651  0.99285947  1
  Te  Te2  1  0.08386042  0.08386042  0.74841875  1
  Te  Te3  1  0.25064048  0.25064048  0.24807855  1
