# generated using pymatgen
data_Ac2PmSm2
_symmetry_space_group_name_H-M   'P 1'
_cell_length_a   6.83014987
_cell_length_b   9.97316894
_cell_length_c   9.62299726
_cell_angle_alpha   39.19447182
_cell_angle_beta   69.21349662
_cell_angle_gamma   69.97523737
_symmetry_Int_Tables_number   1
_chemical_formula_structural   Ac2PmSm2
_chemical_formula_sum   'Ac4 Pm2 Sm4'
_cell_volume   384.75625342
_cell_formula_units_Z   2
loop_
 _symmetry_equiv_pos_site_id
 _symmetry_equiv_pos_as_xyz
  1  'x, y, z'
loop_
 _atom_site_type_symbol
 _atom_site_label
 _atom_site_symmetry_multiplicity
 _atom_site_fract_x
 _atom_site_fract_y
 _atom_site_fract_z
 _atom_site_occupancy
  Ac  Ac0  1  0.83736479  0.80616241  0.80986651  1
  Ac  Ac1  1  0.45339472  0.69383759  0.69013349  1
  Ac  Ac2  1  0.16263521  0.19383759  0.19013349  1
  Ac  Ac3  1  0.54660528  0.30616241  0.30986651  1
  Pm  Pm4  1  0.57733022  0.75000000  0.25000000  1
  Pm  Pm5  1  0.42266978  0.25000000  0.75000000  1
  Sm  Sm6  1  0.79371099  0.15699763  0.01943236  1
  Sm  Sm7  1  0.97014198  0.34300237  0.48056664  1
  Sm  Sm8  1  0.20628901  0.84300237  0.98056664  1
  Sm  Sm9  1  0.02985802  0.65699763  0.51943336  1
