# generated using pymatgen
data_YRu2Se
_symmetry_space_group_name_H-M   'P 1'
_cell_length_a   3.10491386
_cell_length_b   3.86798809
_cell_length_c   6.06681788
_cell_angle_alpha   90.00000000
_cell_angle_beta   90.00000000
_cell_angle_gamma   90.00000000
_symmetry_Int_Tables_number   1
_chemical_formula_structural   YRu2Se
_chemical_formula_sum   'Y1 Ru2 Se1'
_cell_volume   72.86108635
_cell_formula_units_Z   1
loop_
 _symmetry_equiv_pos_site_id
 _symmetry_equiv_pos_as_xyz
  1  'x, y, z'
loop_
 _atom_site_type_symbol
 _atom_site_label
 _atom_site_symmetry_multiplicity
 _atom_site_fract_x
 _atom_site_fract_y
 _atom_site_fract_z
 _atom_site_occupancy
  Ru  Ru0  1  0.00000000  0.00000000  0.05858161  1
  Ru  Ru1  1  0.50000000  0.50000000  0.21593042  1
  Se  Se2  1  0.00000000  0.00000000  0.47469841  1
  Y  Y3  1  0.50000000  0.50000000  0.75078957  1
