# generated using pymatgen
data_CuAs2Br
_symmetry_space_group_name_H-M   'P 1'
_cell_length_a   4.01333502
_cell_length_b   4.01333502
_cell_length_c   7.25592153
_cell_angle_alpha   67.91908426
_cell_angle_beta   67.91908424
_cell_angle_gamma   56.08050551
_symmetry_Int_Tables_number   1
_chemical_formula_structural   CuAs2Br
_chemical_formula_sum   'Cu1 As2 Br1'
_cell_volume   87.74545839
_cell_formula_units_Z   1
loop_
 _symmetry_equiv_pos_site_id
 _symmetry_equiv_pos_as_xyz
  1  'x, y, z'
loop_
 _atom_site_type_symbol
 _atom_site_label
 _atom_site_symmetry_multiplicity
 _atom_site_fract_x
 _atom_site_fract_y
 _atom_site_fract_z
 _atom_site_occupancy
  As  As0  1  0.00390452  0.00390452  0.09950176  1
  As  As1  1  0.49609548  0.49609548  0.40049824  1
  Br  Br2  1  0.75000000  0.75000000  0.75000000  1
  Cu  Cu3  1  0.25000000  0.25000000  0.25000000  1
