# generated using pymatgen
data_AcSnP
_symmetry_space_group_name_H-M   'P 1'
_cell_length_a   4.29308214
_cell_length_b   4.29308214
_cell_length_c   6.36955414
_cell_angle_alpha   109.69421555
_cell_angle_beta   109.69421555
_cell_angle_gamma   90.00000000
_symmetry_Int_Tables_number   1
_chemical_formula_structural   AcSnP
_chemical_formula_sum   'Ac1 Sn1 P1'
_cell_volume   103.20442721
_cell_formula_units_Z   1
loop_
 _symmetry_equiv_pos_site_id
 _symmetry_equiv_pos_as_xyz
  1  'x, y, z'
loop_
 _atom_site_type_symbol
 _atom_site_label
 _atom_site_symmetry_multiplicity
 _atom_site_fract_x
 _atom_site_fract_y
 _atom_site_fract_z
 _atom_site_occupancy
  P  P0  1  0.25440334  0.25440334  0.50880669  1
  Ac  Ac1  1  0.71901886  0.71901886  0.43803772  1
  Sn  Sn2  1  0.02657780  0.02657780  0.05315560  1
