# generated using pymatgen
data_Pm6Pr3YTm2
_symmetry_space_group_name_H-M   'P 1'
_cell_length_a   6.30676025
_cell_length_b   6.30676025
_cell_length_c   12.01544627
_cell_angle_alpha   95.01811020
_cell_angle_beta   95.01811023
_cell_angle_gamma   120.01325263
_symmetry_Int_Tables_number   1
_chemical_formula_structural   Pm6Pr3YTm2
_chemical_formula_sum   'Pm6 Pr3 Y1 Tm2'
_cell_volume   407.44869855
_cell_formula_units_Z   1
loop_
 _symmetry_equiv_pos_site_id
 _symmetry_equiv_pos_as_xyz
  1  'x, y, z'
loop_
 _atom_site_type_symbol
 _atom_site_label
 _atom_site_symmetry_multiplicity
 _atom_site_fract_x
 _atom_site_fract_y
 _atom_site_fract_z
 _atom_site_occupancy
  Pm  Pm0  1  0.91797978  0.58325899  0.75571938  1
  Pm  Pm1  1  0.74732617  0.74732617  0.24426071  1
  Pm  Pm2  1  0.08202022  0.41674101  0.24428062  1
  Pm  Pm3  1  0.58325899  0.91797978  0.75571938  1
  Pm  Pm4  1  0.25267383  0.25267383  0.75573929  1
  Pm  Pm5  1  0.41674101  0.08202022  0.24428062  1
  Pr  Pr6  1  0.16685580  0.83314420  0.50000000  1
  Pr  Pr7  1  0.83314420  0.16685580  0.50000000  1
  Pr  Pr8  1  0.50000000  0.50000000  0.50000000  1
  Y  Y9  1  0.00000000  0.00000000  0.00000000  1
  Tm  Tm10  1  0.33336585  0.66663415  -0.00000000  1
  Tm  Tm11  1  0.66663415  0.33336585  0.00000000  1
