# generated using pymatgen
data_Sc4AlAgO
_symmetry_space_group_name_H-M   'P 1'
_cell_length_a   6.16904207
_cell_length_b   6.15065875
_cell_length_c   7.76612642
_cell_angle_alpha   90.00000000
_cell_angle_beta   113.40177099
_cell_angle_gamma   90.00000000
_symmetry_Int_Tables_number   1
_chemical_formula_structural   Sc4AlAgO
_chemical_formula_sum   'Sc8 Al2 Ag2 O2'
_cell_volume   270.43605563
_cell_formula_units_Z   2
loop_
 _symmetry_equiv_pos_site_id
 _symmetry_equiv_pos_as_xyz
  1  'x, y, z'
loop_
 _atom_site_type_symbol
 _atom_site_label
 _atom_site_symmetry_multiplicity
 _atom_site_fract_x
 _atom_site_fract_y
 _atom_site_fract_z
 _atom_site_occupancy
  Sc  Sc0  1  0.92403887  0.25000000  0.84807774  1
  Sc  Sc1  1  0.41591696  0.75000000  0.83183392  1
  Sc  Sc2  1  0.07596113  0.75000000  0.15192226  1
  Sc  Sc3  1  0.58408304  0.25000000  0.16816608  1
  Sc  Sc4  1  0.50000000  0.50000000  0.50000000  1
  Sc  Sc5  1  0.00000000  0.00000000  0.50000000  1
  Sc  Sc6  1  0.50000000  0.00000000  0.50000000  1
  Sc  Sc7  1  0.00000000  0.50000000  0.50000000  1
  Al  Al8  1  0.61692407  0.75000000  0.23384813  1
  Al  Al9  1  0.38307593  0.25000000  0.76615187  1
  Ag  Ag10  1  0.11551498  0.25000000  0.23102997  1
  Ag  Ag11  1  0.88448502  0.75000000  0.76897003  1
  O  O12  1  0.25103869  0.75000000  0.50207738  1
  O  O13  1  0.74896131  0.25000000  0.49792262  1
