# generated using pymatgen
data_Ac2Pm2Pr4Ho
_symmetry_space_group_name_H-M   'P 1'
_cell_length_a   3.77456716
_cell_length_b   9.91577982
_cell_length_c   10.10388130
_cell_angle_alpha   115.10392250
_cell_angle_beta   90.00000000
_cell_angle_gamma   100.97212098
_symmetry_Int_Tables_number   1
_chemical_formula_structural   Ac2Pm2Pr4Ho
_chemical_formula_sum   'Ac2 Pm2 Pr4 Ho1'
_cell_volume   334.79449792
_cell_formula_units_Z   1
loop_
 _symmetry_equiv_pos_site_id
 _symmetry_equiv_pos_as_xyz
  1  'x, y, z'
loop_
 _atom_site_type_symbol
 _atom_site_label
 _atom_site_symmetry_multiplicity
 _atom_site_fract_x
 _atom_site_fract_y
 _atom_site_fract_z
 _atom_site_occupancy
  Ac  Ac0  1  0.85353732  0.70707465  0.33136343  1
  Ac  Ac1  1  0.14646268  0.29292535  0.66863657  1
  Pm  Pm2  1  0.33555979  0.67111858  0.99648558  1
  Pm  Pm3  1  0.66444021  0.32888142  0.00351442  1
  Pr  Pr4  1  0.81669087  0.63338074  0.67170807  1
  Pr  Pr5  1  0.18330913  0.36661926  0.32829193  1
  Pr  Pr6  1  0.51745436  0.03490872  0.31770695  1
  Pr  Pr7  1  0.48254564  0.96509128  0.68229305  1
  Ho  Ho8  1  0.00000000  0.00000000  0.00000000  1
