# generated using pymatgen
data_Y12As3O5
_symmetry_space_group_name_H-M   'P 1'
_cell_length_a   13.20424888
_cell_length_b   13.20424888
_cell_length_c   13.20424887
_cell_angle_alpha   109.47122063
_cell_angle_beta   109.47122063
_cell_angle_gamma   109.47122062
_symmetry_Int_Tables_number   1
_chemical_formula_structural   Y12As3O5
_chemical_formula_sum   'Y48 As12 O20'
_cell_volume   1772.22644841
_cell_formula_units_Z   4
loop_
 _symmetry_equiv_pos_site_id
 _symmetry_equiv_pos_as_xyz
  1  'x, y, z'
loop_
 _atom_site_type_symbol
 _atom_site_label
 _atom_site_symmetry_multiplicity
 _atom_site_fract_x
 _atom_site_fract_y
 _atom_site_fract_z
 _atom_site_occupancy
  As  As0  1  0.75000000  0.37500000  0.12500000  1
  As  As1  1  0.87500000  0.75000000  0.12500000  1
  As  As2  1  0.37500000  0.75000000  0.62500000  1
  As  As3  1  0.25000000  0.12500000  0.37500000  1
  As  As4  1  0.87500000  0.12500000  0.25000000  1
  As  As5  1  0.37500000  0.62500000  0.25000000  1
  As  As6  1  0.62500000  0.37500000  0.75000000  1
  As  As7  1  0.12500000  0.87500000  0.75000000  1
  As  As8  1  0.75000000  0.87500000  0.62500000  1
  As  As9  1  0.62500000  0.25000000  0.37500000  1
  As  As10  1  0.12500000  0.25000000  0.87500000  1
  As  As11  1  0.25000000  0.62500000  0.87500000  1
  O  O12  1  0.12500000  0.37500000  0.25000000  1
  O  O13  1  0.00000000  0.50000000  0.00000000  1
  O  O14  1  0.00000000  0.00000000  0.00000000  1
  O  O15  1  0.37500000  0.25000000  0.12500000  1
  O  O16  1  0.50000000  -0.00000000  0.50000000  1
  O  O17  1  0.50000000  0.50000000  0.00000000  1
  O  O18  1  0.12500000  0.75000000  0.37500000  1
  O  O19  1  0.75000000  0.12500000  0.87500000  1
  O  O20  1  0.75000000  0.62500000  0.37500000  1
  O  O21  1  0.37500000  0.12500000  0.75000000  1
  O  O22  1  0.62500000  0.87500000  0.25000000  1
  O  O23  1  0.50000000  0.50000000  0.50000000  1
  O  O24  1  0.50000000  0.00000000  0.00000000  1
  O  O25  1  0.00000000  -0.00000000  0.50000000  1
  O  O26  1  0.25000000  0.37500000  0.62500000  1
  O  O27  1  0.25000000  0.87500000  0.12500000  1
  O  O28  1  0.00000000  0.50000000  0.50000000  1
  O  O29  1  0.87500000  0.25000000  0.62500000  1
  O  O30  1  0.62500000  0.75000000  0.87500000  1
  O  O31  1  0.87500000  0.62500000  0.75000000  1
  Y  Y32  1  0.70212888  0.11293846  0.01554826  1
  Y  Y33  1  0.31341938  0.51554826  0.40260980  1
  Y  Y34  1  0.98445174  0.38706154  0.29787112  1
  Y  Y35  1  0.51554826  0.20212888  0.11293846  1
  Y  Y36  1  0.58919042  0.70212888  0.68658062  1
  Y  Y37  1  0.98445174  0.59739020  0.18658062  1
  Y  Y38  1  0.31341938  0.79787112  0.41080958  1
  Y  Y39  1  0.09739020  0.91080958  0.11293846  1
  Y  Y40  1  0.59739020  0.98445174  0.68658062  1
  Y  Y41  1  0.70212888  0.58919042  0.18658062  1
  Y  Y42  1  0.79787112  0.48445174  0.38706154  1
  Y  Y43  1  0.81341938  0.90260980  0.01554826  1
  Y  Y44  1  0.11293846  0.70212888  0.51554826  1
  Y  Y45  1  0.38706154  0.40260980  0.08919042  1
  Y  Y46  1  0.08919042  0.90260980  0.38706154  1
  Y  Y47  1  0.41080958  0.11293846  0.59739020  1
  Y  Y48  1  0.08919042  0.18658062  0.20212888  1
  Y  Y49  1  0.48445174  0.68658062  0.09739020  1
  Y  Y50  1  0.81341938  0.91080958  0.29787112  1
  Y  Y51  1  0.11293846  0.41080958  0.09739020  1
  Y  Y52  1  0.38706154  0.98445174  0.79787112  1
  Y  Y53  1  0.59739020  0.61293846  0.41080958  1
  Y  Y54  1  0.90260980  0.81341938  0.51554826  1
  Y  Y55  1  0.79787112  0.31341938  0.91080958  1
  Y  Y56  1  0.40260980  0.38706154  0.58919042  1
  Y  Y57  1  0.09739020  0.18658062  0.48445174  1
  Y  Y58  1  0.20212888  0.68658062  0.08919042  1
  Y  Y59  1  0.18658062  0.08919042  0.70212888  1
  Y  Y60  1  0.61293846  0.01554826  0.20212888  1
  Y  Y61  1  0.88706154  0.58919042  0.90260980  1
  Y  Y62  1  0.51554826  0.31341938  0.90260980  1
  Y  Y63  1  0.58919042  0.88706154  0.40260980  1
  Y  Y64  1  0.91080958  0.81341938  0.79787112  1
  Y  Y65  1  0.91080958  0.09739020  0.61293846  1
  Y  Y66  1  0.88706154  0.29787112  0.48445174  1
  Y  Y67  1  0.18658062  0.09739020  0.98445174  1
  Y  Y68  1  0.61293846  0.59739020  0.91080958  1
  Y  Y69  1  0.40260980  0.01554826  0.31341938  1
  Y  Y70  1  0.29787112  0.41080958  0.81341938  1
  Y  Y71  1  0.20212888  0.51554826  0.61293846  1
  Y  Y72  1  0.90260980  0.08919042  0.88706154  1
  Y  Y73  1  0.68658062  0.20212888  0.58919042  1
  Y  Y74  1  0.48445174  0.79787112  0.88706154  1
  Y  Y75  1  0.01554826  0.40260980  0.81341938  1
  Y  Y76  1  0.41080958  0.29787112  0.31341938  1
  Y  Y77  1  0.01554826  0.61293846  0.70212888  1
  Y  Y78  1  0.68658062  0.48445174  0.59739020  1
  Y  Y79  1  0.29787112  0.88706154  0.98445174  1
