# generated using pymatgen
data_LiAg2Te
_symmetry_space_group_name_H-M   'P 1'
_cell_length_a   3.52007422
_cell_length_b   4.04669531
_cell_length_c   5.76874931
_cell_angle_alpha   90.00000000
_cell_angle_beta   90.00000000
_cell_angle_gamma   90.00000000
_symmetry_Int_Tables_number   1
_chemical_formula_structural   LiAg2Te
_chemical_formula_sum   'Li1 Ag2 Te1'
_cell_volume   82.17391776
_cell_formula_units_Z   1
loop_
 _symmetry_equiv_pos_site_id
 _symmetry_equiv_pos_as_xyz
  1  'x, y, z'
loop_
 _atom_site_type_symbol
 _atom_site_label
 _atom_site_symmetry_multiplicity
 _atom_site_fract_x
 _atom_site_fract_y
 _atom_site_fract_z
 _atom_site_occupancy
  Ag  Ag0  1  0.00000000  0.00000000  0.01068274  1
  Ag  Ag1  1  0.00000000  0.00000000  0.48931726  1
  Li  Li2  1  0.50000000  0.50000000  0.25000000  1
  Te  Te3  1  0.50000000  0.50000000  0.75000000  1
