# generated using pymatgen
data_Li(SiOs)2
_symmetry_space_group_name_H-M   'P 1'
_cell_length_a   6.98842292
_cell_length_b   6.98842292
_cell_length_c   2.81631464
_cell_angle_alpha   90.00000000
_cell_angle_beta   90.00000000
_cell_angle_gamma   90.00000000
_symmetry_Int_Tables_number   1
_chemical_formula_structural   Li(SiOs)2
_chemical_formula_sum   'Li2 Si4 Os4'
_cell_volume   137.54332900
_cell_formula_units_Z   2
loop_
 _symmetry_equiv_pos_site_id
 _symmetry_equiv_pos_as_xyz
  1  'x, y, z'
loop_
 _atom_site_type_symbol
 _atom_site_label
 _atom_site_symmetry_multiplicity
 _atom_site_fract_x
 _atom_site_fract_y
 _atom_site_fract_z
 _atom_site_occupancy
  Li  Li0  1  0.00000000  0.00000000  0.00000000  1
  Li  Li1  1  0.49999979  0.49999979  0.00000000  1
  Os  Os2  1  0.34970837  0.15029142  0.50000095  1
  Os  Os3  1  0.84970816  0.34970837  0.50000095  1
  Os  Os4  1  0.15029142  0.65029121  0.50000095  1
  Os  Os5  1  0.65029121  0.84970816  0.50000095  1
  Si  Si6  1  0.64517847  0.14517868  0.00000000  1
  Si  Si7  1  0.14517868  0.35482111  0.00000000  1
  Si  Si8  1  0.85482090  0.64517847  0.00000000  1
  Si  Si9  1  0.35482111  0.85482090  0.00000000  1
