# generated using pymatgen
data_Sm6HN5
_symmetry_space_group_name_H-M   'P 1'
_cell_length_a   6.21939365
_cell_length_b   6.21939364
_cell_length_c   6.22137869
_cell_angle_alpha   99.70364242
_cell_angle_beta   99.70364604
_cell_angle_gamma   119.92387406
_symmetry_Int_Tables_number   1
_chemical_formula_structural   Sm6HN5
_chemical_formula_sum   'Sm6 H1 N5'
_cell_volume   196.38811424
_cell_formula_units_Z   1
loop_
 _symmetry_equiv_pos_site_id
 _symmetry_equiv_pos_as_xyz
  1  'x, y, z'
loop_
 _atom_site_type_symbol
 _atom_site_label
 _atom_site_symmetry_multiplicity
 _atom_site_fract_x
 _atom_site_fract_y
 _atom_site_fract_z
 _atom_site_occupancy
  Sm  Sm0  1  0.43574209  0.08498886  0.25494556  1
  Sm  Sm1  1  0.91501114  0.56425791  0.74505444  1
  Sm  Sm2  1  0.26377543  0.26377543  0.73595445  1
  Sm  Sm3  1  0.73622457  0.73622457  0.26404555  1
  Sm  Sm4  1  0.08498886  0.43574209  0.25494556  1
  Sm  Sm5  1  0.56425791  0.91501114  0.74505444  1
  H  H6  1  0.00000000  0.00000000  0.00000000  1
  N  N7  1  0.83057143  0.16942857  0.50000000  1
  N  N8  1  0.66657048  0.33342952  1.00000000  1
  N  N9  1  0.50000000  0.50000000  0.50000000  1
  N  N10  1  0.33342952  0.66657048  0.00000000  1
  N  N11  1  0.16942857  0.83057143  0.50000000  1
