# generated using pymatgen
data_Cs2I6BrO
_symmetry_space_group_name_H-M   'P 1'
_cell_length_a   8.16800932
_cell_length_b   8.16800932
_cell_length_c   8.52545356
_cell_angle_alpha   61.37749740
_cell_angle_beta   61.37749740
_cell_angle_gamma   90.00000000
_symmetry_Int_Tables_number   1
_chemical_formula_structural   Cs2I6BrO
_chemical_formula_sum   'Cs2 I6 Br1 O1'
_cell_volume   418.37695507
_cell_formula_units_Z   1
loop_
 _symmetry_equiv_pos_site_id
 _symmetry_equiv_pos_as_xyz
  1  'x, y, z'
loop_
 _atom_site_type_symbol
 _atom_site_label
 _atom_site_symmetry_multiplicity
 _atom_site_fract_x
 _atom_site_fract_y
 _atom_site_fract_z
 _atom_site_occupancy
  Cs  Cs0  1  0.75000000  0.25000000  0.50000000  1
  Cs  Cs1  1  0.25000000  0.75000000  0.50000000  1
  I  I2  1  0.22359976  0.22359976  0.55280047  1
  I  I3  1  0.77640024  0.77640024  0.44719953  1
  I  I4  1  0.28892466  0.28892466  0.00000000  1
  I  I5  1  0.71107534  0.71107534  0.00000000  1
  I  I6  1  0.71107534  0.28892466  0.00000000  1
  I  I7  1  0.28892466  0.71107534  0.00000000  1
  O  O8  1  0.50000000  0.50000000  0.00000000  1
  Br  Br9  1  0.00000000  0.00000000  0.00000000  1
