# generated using pymatgen
data_SnSb2N
_symmetry_space_group_name_H-M   'P 1'
_cell_length_a   3.25427967
_cell_length_b   24.00587524
_cell_length_c   17.57893957
_cell_angle_alpha   9.85023569
_cell_angle_beta   89.99999691
_cell_angle_gamma   93.88653544
_symmetry_Int_Tables_number   1
_chemical_formula_structural   SnSb2N
_chemical_formula_sum   'Sn2 Sb4 N2'
_cell_volume   215.70791892
_cell_formula_units_Z   2
loop_
 _symmetry_equiv_pos_site_id
 _symmetry_equiv_pos_as_xyz
  1  'x, y, z'
loop_
 _atom_site_type_symbol
 _atom_site_label
 _atom_site_symmetry_multiplicity
 _atom_site_fract_x
 _atom_site_fract_y
 _atom_site_fract_z
 _atom_site_occupancy
  Sn  Sn0  1  0.28313723  0.56627447  0.76267485  1
  Sn  Sn1  1  0.71686277  0.43372553  0.23732515  1
  Sb  Sb2  1  0.59901731  0.19803461  0.80006455  1
  Sb  Sb3  1  0.40098269  0.80196539  0.19993545  1
  Sb  Sb4  1  0.97541796  0.95083592  0.72201444  1
  Sb  Sb5  1  0.02458204  0.04916408  0.27798556  1
  N  N6  1  0.57171616  0.14343332  0.52200820  1
  N  N7  1  0.42828384  0.85656668  0.47799180  1
