# generated using pymatgen
data_ZrSi2Ag
_symmetry_space_group_name_H-M   'P 1'
_cell_length_a   7.06568079
_cell_length_b   7.06568079
_cell_length_c   5.81129631
_cell_angle_alpha   52.56028182
_cell_angle_beta   52.56028182
_cell_angle_gamma   90.00000000
_symmetry_Int_Tables_number   1
_chemical_formula_structural   ZrSi2Ag
_chemical_formula_sum   'Zr2 Si4 Ag2'
_cell_volume   148.17580724
_cell_formula_units_Z   2
loop_
 _symmetry_equiv_pos_site_id
 _symmetry_equiv_pos_as_xyz
  1  'x, y, z'
loop_
 _atom_site_type_symbol
 _atom_site_label
 _atom_site_symmetry_multiplicity
 _atom_site_fract_x
 _atom_site_fract_y
 _atom_site_fract_z
 _atom_site_occupancy
  Si  Si0  1  0.65184810  0.12500000  0.25000000  1
  Si  Si1  1  0.09815190  0.62500000  0.25000000  1
  Si  Si2  1  0.37500000  0.34815190  0.75000000  1
  Si  Si3  1  0.87500000  0.90184810  0.75000000  1
  Zr  Zr4  1  0.50000000  0.50000000  0.00000000  1
  Zr  Zr5  1  0.25000000  0.75000000  0.50000000  1
  Ag  Ag6  1  0.00000000  0.00000000  0.00000000  1
  Ag  Ag7  1  0.75000000  0.25000000  0.50000000  1
