# generated using pymatgen
data_Cs4Li(US4)3
_symmetry_space_group_name_H-M   'P 1'
_cell_length_a   9.08653545
_cell_length_b   9.08653544
_cell_length_c   9.08653544
_cell_angle_alpha   109.47122064
_cell_angle_beta   109.47122065
_cell_angle_gamma   109.47122065
_symmetry_Int_Tables_number   1
_chemical_formula_structural   Cs4Li(US4)3
_chemical_formula_sum   'Cs4 Li1 U3 S12'
_cell_volume   577.52805243
_cell_formula_units_Z   1
loop_
 _symmetry_equiv_pos_site_id
 _symmetry_equiv_pos_as_xyz
  1  'x, y, z'
loop_
 _atom_site_type_symbol
 _atom_site_label
 _atom_site_symmetry_multiplicity
 _atom_site_fract_x
 _atom_site_fract_y
 _atom_site_fract_z
 _atom_site_occupancy
  Cs  Cs0  1  0.50000000  0.50000000  0.50000000  1
  Cs  Cs1  1  0.00000000  0.00000000  0.50000000  1
  Cs  Cs2  1  0.50000000  0.00000000  0.00000000  1
  Cs  Cs3  1  0.00000000  0.50000000  0.00000000  1
  Li  Li4  1  0.00000000  0.00000000  0.00000000  1
  U  U5  1  0.50000000  0.00000000  0.50000000  1
  U  U6  1  0.50000000  0.50000000  0.00000000  1
  U  U7  1  0.00000000  0.50000000  0.50000000  1
  S  S8  1  0.25000000  0.50000000  0.75000000  1
  S  S9  1  0.73293678  1.00000000  0.73293678  1
  S  S10  1  0.26706322  -0.00000000  0.26706322  1
  S  S11  1  0.75000000  0.50000000  0.25000000  1
  S  S12  1  0.73293678  0.73293678  1.00000000  1
  S  S13  1  0.26706322  0.26706322  0.00000000  1
  S  S14  1  0.75000000  0.25000000  0.50000000  1
  S  S15  1  0.25000000  0.75000000  0.50000000  1
  S  S16  1  0.50000000  0.25000000  0.75000000  1
  S  S17  1  1.00000000  0.73293678  0.73293678  1
  S  S18  1  0.50000000  0.75000000  0.25000000  1
  S  S19  1  0.00000000  0.26706322  0.26706322  1
