# generated using pymatgen
data_PmIn4Sn
_symmetry_space_group_name_H-M   'P 1'
_cell_length_a   4.46331362
_cell_length_b   4.46272439
_cell_length_c   9.16797722
_cell_angle_alpha   89.99866714
_cell_angle_beta   89.99898932
_cell_angle_gamma   89.99753556
_symmetry_Int_Tables_number   1
_chemical_formula_structural   PmIn4Sn
_chemical_formula_sum   'Pm1 In4 Sn1'
_cell_volume   182.61270717
_cell_formula_units_Z   1
loop_
 _symmetry_equiv_pos_site_id
 _symmetry_equiv_pos_as_xyz
  1  'x, y, z'
loop_
 _atom_site_type_symbol
 _atom_site_label
 _atom_site_symmetry_multiplicity
 _atom_site_fract_x
 _atom_site_fract_y
 _atom_site_fract_z
 _atom_site_occupancy
  Pm  Pm0  1  0.50132106  0.49723615  0.99813729  1
  In  In1  1  0.50125756  0.99731643  0.26119099  1
  In  In2  1  0.50132867  0.99730048  0.73507146  1
  In  In3  1  0.00132737  0.49727453  0.73509724  1
  In  In4  1  0.00124766  0.49732890  0.26116465  1
  Sn  Sn5  1  0.00130918  0.99726551  0.49816587  1
