# generated using pymatgen
data_Ni4H9
_symmetry_space_group_name_H-M   'P 1'
_cell_length_a   4.29749044
_cell_length_b   4.90461984
_cell_length_c   21.30680194
_cell_angle_alpha   90.00000000
_cell_angle_beta   90.00000000
_cell_angle_gamma   91.54122412
_symmetry_Int_Tables_number   1
_chemical_formula_structural   Ni4H9
_chemical_formula_sum   'Ni4 H9'
_cell_volume   448.93286193
_cell_formula_units_Z   1
loop_
 _symmetry_equiv_pos_site_id
 _symmetry_equiv_pos_as_xyz
  1  'x, y, z'
loop_
 _atom_site_type_symbol
 _atom_site_label
 _atom_site_symmetry_multiplicity
 _atom_site_fract_x
 _atom_site_fract_y
 _atom_site_fract_z
 _atom_site_occupancy
  Ni  Ni0  1  0.50851274  0.10446318  0.48795053  1
  Ni  Ni1  1  0.00658840  0.34575109  0.47629791  1
  Ni  Ni2  1  0.51473212  0.59947773  0.47986344  1
  Ni  Ni3  1  0.02307191  0.85281768  0.45635590  1
  H  H4  1  0.40727939  0.49982267  0.68048464  1
  H  H5  1  0.30925830  0.35786365  0.52017684  1
  H  H6  1  0.03522108  0.98278818  0.38448518  1
  H  H7  1  0.17910259  0.86947400  0.38503192  1
  H  H8  1  0.32488361  0.56090977  0.65298598  1
  H  H9  1  0.82427113  0.58001911  0.43309271  1
  H  H10  1  0.29879553  0.83531245  0.51180379  1
  H  H11  1  0.70805263  0.38011415  0.52139941  1
  H  H12  1  0.86023059  0.03117633  0.51007175  1
