# generated using pymatgen
data_KCeF2
_symmetry_space_group_name_H-M   'P 1'
_cell_length_a   3.43619389
_cell_length_b   3.43619389
_cell_length_c   7.37595740
_cell_angle_alpha   76.53024389
_cell_angle_beta   76.53024393
_cell_angle_gamma   59.99999992
_symmetry_Int_Tables_number   1
_chemical_formula_structural   KCeF2
_chemical_formula_sum   'K1 Ce1 F2'
_cell_volume   72.64371352
_cell_formula_units_Z   1
loop_
 _symmetry_equiv_pos_site_id
 _symmetry_equiv_pos_as_xyz
  1  'x, y, z'
loop_
 _atom_site_type_symbol
 _atom_site_label
 _atom_site_symmetry_multiplicity
 _atom_site_fract_x
 _atom_site_fract_y
 _atom_site_fract_z
 _atom_site_occupancy
  K  K0  1  0.50000000  0.50000000  0.50000000  1
  Ce  Ce1  1  0.00000000  0.00000000  0.00000000  1
  F  F2  1  0.75436560  0.75436560  0.73690221  1
  F  F3  1  0.24563440  0.24563440  0.26309779  1
