# generated using pymatgen
data_Pm2Ru2O7
_symmetry_space_group_name_H-M   'P 1'
_cell_length_a   7.36788978
_cell_length_b   7.36789027
_cell_length_c   7.36789006
_cell_angle_alpha   60.00000095
_cell_angle_beta   59.99999874
_cell_angle_gamma   60.00000399
_symmetry_Int_Tables_number   1
_chemical_formula_structural   Pm2Ru2O7
_chemical_formula_sum   'Pm4 Ru4 O14'
_cell_volume   282.82280222
_cell_formula_units_Z   2
loop_
 _symmetry_equiv_pos_site_id
 _symmetry_equiv_pos_as_xyz
  1  'x, y, z'
loop_
 _atom_site_type_symbol
 _atom_site_label
 _atom_site_symmetry_multiplicity
 _atom_site_fract_x
 _atom_site_fract_y
 _atom_site_fract_z
 _atom_site_occupancy
  Pm  Pm0  1  0.62500000  0.62500000  0.62500000  1
  Pm  Pm1  1  0.62500000  0.62500000  0.12500000  1
  Pm  Pm2  1  0.62500000  0.12500000  0.62500000  1
  Pm  Pm3  1  0.12500000  0.62500000  0.62500000  1
  Ru  Ru4  1  0.62500000  0.12500000  0.12500000  1
  Ru  Ru5  1  0.12500000  0.62500000  0.12500000  1
  Ru  Ru6  1  0.12500000  0.12500000  0.62500000  1
  Ru  Ru7  1  0.12500000  0.12500000  0.12500000  1
  O  O8  1  0.20699013  0.20699013  0.79300987  1
  O  O9  1  0.20699013  0.79300987  0.20699013  1
  O  O10  1  0.45699013  0.04300987  0.45699013  1
  O  O11  1  0.45699013  0.45699013  0.04300987  1
  O  O12  1  0.75000000  0.75000000  0.75000000  1
  O  O13  1  0.79300987  0.20699013  0.20699013  1
  O  O14  1  0.45699013  0.04300987  0.04300987  1
  O  O15  1  0.04300987  0.45699013  0.45699013  1
  O  O16  1  0.04300987  0.04300987  0.45699013  1
  O  O17  1  0.04300987  0.45699013  0.04300987  1
  O  O18  1  0.20699013  0.79300987  0.79300987  1
  O  O19  1  0.50000000  0.50000000  0.50000000  1
  O  O20  1  0.79300987  0.20699013  0.79300987  1
  O  O21  1  0.79300987  0.79300987  0.20699013  1
