# generated using pymatgen
data_Nd2Te3Au
_symmetry_space_group_name_H-M   'P 1'
_cell_length_a   11.21158162
_cell_length_b   4.22981274
_cell_length_c   14.99304771
_cell_angle_alpha   90.00000000
_cell_angle_beta   90.00000000
_cell_angle_gamma   90.00000000
_symmetry_Int_Tables_number   1
_chemical_formula_structural   Nd2Te3Au
_chemical_formula_sum   'Nd8 Te12 Au4'
_cell_volume   711.01366419
_cell_formula_units_Z   4
loop_
 _symmetry_equiv_pos_site_id
 _symmetry_equiv_pos_as_xyz
  1  'x, y, z'
loop_
 _atom_site_type_symbol
 _atom_site_label
 _atom_site_symmetry_multiplicity
 _atom_site_fract_x
 _atom_site_fract_y
 _atom_site_fract_z
 _atom_site_occupancy
  Au  Au0  1  0.25692896  0.24999925  0.21994261  1
  Au  Au1  1  0.75692889  0.24999925  0.28005780  1
  Au  Au2  1  0.24307097  0.75000010  0.71994235  1
  Au  Au3  1  0.74307090  0.75000010  0.78005755  1
  Nd  Nd4  1  0.26428029  0.75000010  0.02439597  1
  Nd  Nd5  1  0.01555356  0.75000010  0.24962837  1
  Nd  Nd6  1  0.51555349  0.75000010  0.25037204  1
  Nd  Nd7  1  0.76428021  0.75000010  0.47560444  1
  Nd  Nd8  1  0.23571964  0.24999925  0.52439572  1
  Nd  Nd9  1  0.48444637  0.24999925  0.74962811  1
  Nd  Nd10  1  0.98444630  0.24999925  0.75037179  1
  Nd  Nd11  1  0.73571957  0.24999925  0.97560418  1
  Te  Te12  1  0.06967081  0.24999925  0.09435573  1
  Te  Te13  1  0.45545135  0.24999925  0.09817150  1
  Te  Te14  1  0.76530505  0.75000010  0.14380465  1
  Te  Te15  1  0.26530512  0.75000010  0.35619576  1
  Te  Te16  1  0.95545128  0.24999925  0.40182891  1
  Te  Te17  1  0.56967074  0.24999925  0.40564468  1
  Te  Te18  1  0.43032912  0.75000010  0.59435548  1
  Te  Te19  1  0.04454858  0.75000010  0.59817124  1
  Te  Te20  1  0.73469474  0.24999925  0.64380439  1
  Te  Te21  1  0.23469481  0.24999925  0.85619550  1
  Te  Te22  1  0.54454850  0.75000010  0.90182865  1
  Te  Te23  1  0.93032904  0.75000010  0.90564442  1
