# generated using pymatgen
data_Re2BrCl2
_symmetry_space_group_name_H-M   'P 1'
_cell_length_a   11.00638503
_cell_length_b   11.00638503
_cell_length_c   2.73833800
_cell_angle_alpha   90.00000000
_cell_angle_beta   90.00000000
_cell_angle_gamma   90.00000000
_symmetry_Int_Tables_number   1
_chemical_formula_structural   Re2BrCl2
_chemical_formula_sum   'Re4 Br2 Cl4'
_cell_volume   331.72366578
_cell_formula_units_Z   2
loop_
 _symmetry_equiv_pos_site_id
 _symmetry_equiv_pos_as_xyz
  1  'x, y, z'
loop_
 _atom_site_type_symbol
 _atom_site_label
 _atom_site_symmetry_multiplicity
 _atom_site_fract_x
 _atom_site_fract_y
 _atom_site_fract_z
 _atom_site_occupancy
  Re  Re0  1  0.07528435  0.57528435  0.50000000  1
  Re  Re1  1  0.57528435  0.92471565  0.50000000  1
  Re  Re2  1  0.92471565  0.42471565  0.50000000  1
  Re  Re3  1  0.42471565  0.07528435  0.50000000  1
  Br  Br4  1  0.00000000  0.00000000  0.00000000  1
  Br  Br5  1  0.50000000  0.50000000  0.00000000  1
  Cl  Cl6  1  0.20142818  0.70142818  0.00000000  1
  Cl  Cl7  1  0.70142818  0.79857182  0.00000000  1
  Cl  Cl8  1  0.79857182  0.29857182  0.00000000  1
  Cl  Cl9  1  0.29857182  0.20142818  0.00000000  1
