# generated using pymatgen
data_BaCa2ReTe
_symmetry_space_group_name_H-M   'P 1'
_cell_length_a   5.71484040
_cell_length_b   5.71484040
_cell_length_c   5.18985470
_cell_angle_alpha   90.00000000
_cell_angle_beta   90.00000000
_cell_angle_gamma   90.00000000
_symmetry_Int_Tables_number   1
_chemical_formula_structural   BaCa2ReTe
_chemical_formula_sum   'Ba1 Ca2 Re1 Te1'
_cell_volume   169.49754473
_cell_formula_units_Z   1
loop_
 _symmetry_equiv_pos_site_id
 _symmetry_equiv_pos_as_xyz
  1  'x, y, z'
loop_
 _atom_site_type_symbol
 _atom_site_label
 _atom_site_symmetry_multiplicity
 _atom_site_fract_x
 _atom_site_fract_y
 _atom_site_fract_z
 _atom_site_occupancy
  Re  Re0  1  0.00000000  0.00000000  0.00000000  1
  Ca  Ca1  1  0.00000000  0.50000000  0.00000000  1
  Ca  Ca2  1  0.50000000  0.00000000  0.00000000  1
  Te  Te3  1  0.00000000  0.00000000  0.50000000  1
  Ba  Ba4  1  0.50000000  0.50000000  0.50000000  1
