# generated using pymatgen
data_Rb2DyTe6
_symmetry_space_group_name_H-M   'P 1'
_cell_length_a   6.09213533
_cell_length_b   10.49125202
_cell_length_c   10.49125220
_cell_angle_alpha   34.99537618
_cell_angle_beta   99.27864506
_cell_angle_gamma   99.27864188
_symmetry_Int_Tables_number   1
_chemical_formula_structural   Rb2DyTe6
_chemical_formula_sum   'Rb2 Dy1 Te6'
_cell_volume   379.02580865
_cell_formula_units_Z   1
loop_
 _symmetry_equiv_pos_site_id
 _symmetry_equiv_pos_as_xyz
  1  'x, y, z'
loop_
 _atom_site_type_symbol
 _atom_site_label
 _atom_site_symmetry_multiplicity
 _atom_site_fract_x
 _atom_site_fract_y
 _atom_site_fract_z
 _atom_site_occupancy
  Rb  Rb0  1  0.71114012  0.68574738  0.68574638  1
  Rb  Rb1  1  0.28885988  0.31425262  0.31425362  1
  Dy  Dy2  1  0.00000000  0.00000000  0.00000000  1
  Te  Te3  1  0.18203452  0.36637636  0.89872356  1
  Te  Te4  1  0.81796548  0.10127644  0.63362464  1
  Te  Te5  1  0.81796548  0.63362364  0.10127644  1
  Te  Te6  1  0.50000000  0.22715379  0.77284621  1
  Te  Te7  1  0.18203452  0.89872356  0.36637536  1
  Te  Te8  1  0.50000000  0.77284621  0.22715379  1
