# generated using pymatgen
data_Tb5Br4
_symmetry_space_group_name_H-M   'P 1'
_cell_length_a   8.05212284
_cell_length_b   8.05212279
_cell_length_c   18.45088420
_cell_angle_alpha   90.00000000
_cell_angle_beta   90.00000000
_cell_angle_gamma   120.00000253
_symmetry_Int_Tables_number   1
_chemical_formula_structural   Tb5Br4
_chemical_formula_sum   'Tb5 Br4'
_cell_volume   1036.02106212
_cell_formula_units_Z   1
loop_
 _symmetry_equiv_pos_site_id
 _symmetry_equiv_pos_as_xyz
  1  'x, y, z'
loop_
 _atom_site_type_symbol
 _atom_site_label
 _atom_site_symmetry_multiplicity
 _atom_site_fract_x
 _atom_site_fract_y
 _atom_site_fract_z
 _atom_site_occupancy
  Tb  Tb0  1  0.23435072  0.00000002  0.51635851  1
  Tb  Tb1  1  0.00000001  0.23435071  0.51635851  1
  Tb  Tb2  1  0.76564929  0.76564929  0.51635851  1
  Tb  Tb3  1  0.33333333  0.66666666  0.57952337  1
  Tb  Tb4  1  0.66666668  0.33333334  0.57952338  1
  Br  Br5  1  0.58415724  0.00000000  0.46646172  1
  Br  Br6  1  1.00000000  0.58415724  0.46646172  1
  Br  Br7  1  0.41584276  0.41584275  0.46646172  1
  Br  Br8  1  0.00000000  0.00000001  0.39249255  1
