# generated using pymatgen
data_Pm12Sb3H5
_symmetry_space_group_name_H-M   'P 1'
_cell_length_a   13.89207548
_cell_length_b   13.89207547
_cell_length_c   13.89207547
_cell_angle_alpha   109.47122065
_cell_angle_beta   109.47122063
_cell_angle_gamma   109.47122062
_symmetry_Int_Tables_number   1
_chemical_formula_structural   Pm12Sb3H5
_chemical_formula_sum   'Pm48 Sb12 H20'
_cell_volume   2063.85656619
_cell_formula_units_Z   4
loop_
 _symmetry_equiv_pos_site_id
 _symmetry_equiv_pos_as_xyz
  1  'x, y, z'
loop_
 _atom_site_type_symbol
 _atom_site_label
 _atom_site_symmetry_multiplicity
 _atom_site_fract_x
 _atom_site_fract_y
 _atom_site_fract_z
 _atom_site_occupancy
  Sb  Sb0  1  0.75000000  0.37500000  0.12500000  1
  Sb  Sb1  1  0.87500000  0.75000000  0.12500000  1
  Sb  Sb2  1  0.37500000  0.75000000  0.62500000  1
  Sb  Sb3  1  0.25000000  0.12500000  0.37500000  1
  Sb  Sb4  1  0.87500000  0.12500000  0.25000000  1
  Sb  Sb5  1  0.37500000  0.62500000  0.25000000  1
  Sb  Sb6  1  0.62500000  0.37500000  0.75000000  1
  Sb  Sb7  1  0.12500000  0.87500000  0.75000000  1
  Sb  Sb8  1  0.75000000  0.87500000  0.62500000  1
  Sb  Sb9  1  0.62500000  0.25000000  0.37500000  1
  Sb  Sb10  1  0.12500000  0.25000000  0.87500000  1
  Sb  Sb11  1  0.25000000  0.62500000  0.87500000  1
  H  H12  1  0.12500000  0.37500000  0.25000000  1
  H  H13  1  0.00000000  0.50000000  0.00000000  1
  H  H14  1  0.00000000  0.00000000  0.00000000  1
  H  H15  1  0.37500000  0.25000000  0.12500000  1
  H  H16  1  0.50000000  0.00000000  0.50000000  1
  H  H17  1  0.50000000  0.50000000  0.00000000  1
  H  H18  1  0.12500000  0.75000000  0.37500000  1
  H  H19  1  0.75000000  0.12500000  0.87500000  1
  H  H20  1  0.75000000  0.62500000  0.37500000  1
  H  H21  1  0.37500000  0.12500000  0.75000000  1
  H  H22  1  0.62500000  0.87500000  0.25000000  1
  H  H23  1  0.50000000  0.50000000  0.50000000  1
  H  H24  1  0.50000000  0.00000000  0.00000000  1
  H  H25  1  0.00000000  0.00000000  0.50000000  1
  H  H26  1  0.25000000  0.37500000  0.62500000  1
  H  H27  1  0.25000000  0.87500000  0.12500000  1
  H  H28  1  0.00000000  0.50000000  0.50000000  1
  H  H29  1  0.87500000  0.25000000  0.62500000  1
  H  H30  1  0.62500000  0.75000000  0.87500000  1
  H  H31  1  0.87500000  0.62500000  0.75000000  1
  Pm  Pm32  1  0.70810053  0.11134105  0.01565491  1
  Pm  Pm33  1  0.30755438  0.51565491  0.40431386  1
  Pm  Pm34  1  0.98434509  0.38865895  0.29189947  1
  Pm  Pm35  1  0.51565491  0.20810053  0.11134105  1
  Pm  Pm36  1  0.59675948  0.70810053  0.69244562  1
  Pm  Pm37  1  0.98434509  0.59568614  0.19244562  1
  Pm  Pm38  1  0.30755438  0.79189947  0.40324052  1
  Pm  Pm39  1  0.09568614  0.90324052  0.11134105  1
  Pm  Pm40  1  0.59568614  0.98434509  0.69244562  1
  Pm  Pm41  1  0.70810053  0.59675948  0.19244562  1
  Pm  Pm42  1  0.79189947  0.48434509  0.38865895  1
  Pm  Pm43  1  0.80755438  0.90431386  0.01565491  1
  Pm  Pm44  1  0.11134105  0.70810053  0.51565491  1
  Pm  Pm45  1  0.38865895  0.40431386  0.09675948  1
  Pm  Pm46  1  0.09675948  0.90431386  0.38865895  1
  Pm  Pm47  1  0.40324052  0.11134105  0.59568614  1
  Pm  Pm48  1  0.09675948  0.19244562  0.20810053  1
  Pm  Pm49  1  0.48434509  0.69244562  0.09568614  1
  Pm  Pm50  1  0.80755438  0.90324052  0.29189947  1
  Pm  Pm51  1  0.11134105  0.40324052  0.09568614  1
  Pm  Pm52  1  0.38865895  0.98434509  0.79189947  1
  Pm  Pm53  1  0.59568614  0.61134105  0.40324052  1
  Pm  Pm54  1  0.90431386  0.80755438  0.51565491  1
  Pm  Pm55  1  0.79189947  0.30755438  0.90324052  1
  Pm  Pm56  1  0.40431386  0.38865895  0.59675948  1
  Pm  Pm57  1  0.09568614  0.19244562  0.48434509  1
  Pm  Pm58  1  0.20810053  0.69244562  0.09675948  1
  Pm  Pm59  1  0.19244562  0.09675948  0.70810053  1
  Pm  Pm60  1  0.61134105  0.01565491  0.20810053  1
  Pm  Pm61  1  0.88865895  0.59675948  0.90431386  1
  Pm  Pm62  1  0.51565491  0.30755438  0.90431386  1
  Pm  Pm63  1  0.59675948  0.88865895  0.40431386  1
  Pm  Pm64  1  0.90324052  0.80755438  0.79189947  1
  Pm  Pm65  1  0.90324052  0.09568614  0.61134105  1
  Pm  Pm66  1  0.88865895  0.29189947  0.48434509  1
  Pm  Pm67  1  0.19244562  0.09568614  0.98434509  1
  Pm  Pm68  1  0.61134105  0.59568614  0.90324052  1
  Pm  Pm69  1  0.40431386  0.01565491  0.30755438  1
  Pm  Pm70  1  0.29189947  0.40324052  0.80755438  1
  Pm  Pm71  1  0.20810053  0.51565491  0.61134105  1
  Pm  Pm72  1  0.90431386  0.09675948  0.88865895  1
  Pm  Pm73  1  0.69244562  0.20810053  0.59675948  1
  Pm  Pm74  1  0.48434509  0.79189947  0.88865895  1
  Pm  Pm75  1  0.01565491  0.40431386  0.80755438  1
  Pm  Pm76  1  0.40324052  0.29189947  0.30755438  1
  Pm  Pm77  1  0.01565491  0.61134105  0.70810053  1
  Pm  Pm78  1  0.69244562  0.48434509  0.59568614  1
  Pm  Pm79  1  0.29189947  0.88865895  0.98434509  1
