# generated using pymatgen
data_BaC3
_symmetry_space_group_name_H-M   'P 1'
_cell_length_a   5.70111905
_cell_length_b   5.70111905
_cell_length_c   8.95005789
_cell_angle_alpha   90.00000000
_cell_angle_beta   90.00000000
_cell_angle_gamma   119.99999994
_symmetry_Int_Tables_number   1
_chemical_formula_structural   BaC3
_chemical_formula_sum   'Ba4 C12'
_cell_volume   251.92814929
_cell_formula_units_Z   4
loop_
 _symmetry_equiv_pos_site_id
 _symmetry_equiv_pos_as_xyz
  1  'x, y, z'
loop_
 _atom_site_type_symbol
 _atom_site_label
 _atom_site_symmetry_multiplicity
 _atom_site_fract_x
 _atom_site_fract_y
 _atom_site_fract_z
 _atom_site_occupancy
  C  C0  1  0.50000000  0.00000000  0.00000000  1
  C  C1  1  0.50000000  0.00000000  0.50000000  1
  C  C2  1  -0.00000000  0.50000000  0.00000000  1
  C  C3  1  0.50000000  0.50000000  0.00000000  1
  C  C4  1  0.50000000  0.50000000  0.50000000  1
  C  C5  1  -0.00000000  0.50000000  0.50000000  1
  C  C6  1  0.75238929  0.50477860  0.25000000  1
  C  C7  1  0.24761071  0.49522140  0.75000000  1
  C  C8  1  0.49522140  0.24761071  0.25000000  1
  C  C9  1  0.75238929  0.24761071  0.25000000  1
  C  C10  1  0.24761071  0.75238929  0.75000000  1
  C  C11  1  0.50477860  0.75238929  0.75000000  1
  Ba  Ba12  1  0.00000000  0.00000000  0.00000000  1
  Ba  Ba13  1  0.00000000  0.00000000  0.50000000  1
  Ba  Ba14  1  0.33333333  0.66666667  0.25000000  1
  Ba  Ba15  1  0.66666667  0.33333333  0.75000000  1
