# generated using pymatgen
data_La(PmS)4
_symmetry_space_group_name_H-M   'P 1'
_cell_length_a   5.69241195
_cell_length_b   6.99823814
_cell_length_c   6.99896455
_cell_angle_alpha   80.45996763
_cell_angle_beta   66.00474316
_cell_angle_gamma   66.00209238
_symmetry_Int_Tables_number   1
_chemical_formula_structural   La(PmS)4
_chemical_formula_sum   'La1 Pm4 S4'
_cell_volume   232.70310968
_cell_formula_units_Z   1
loop_
 _symmetry_equiv_pos_site_id
 _symmetry_equiv_pos_as_xyz
  1  'x, y, z'
loop_
 _atom_site_type_symbol
 _atom_site_label
 _atom_site_symmetry_multiplicity
 _atom_site_fract_x
 _atom_site_fract_y
 _atom_site_fract_z
 _atom_site_occupancy
  La  La0  1  0.00000000  0.00000000  0.00000000  1
  Pm  Pm1  1  0.60528260  0.58921523  0.20022058  1
  Pm  Pm2  1  0.39471740  0.41078477  0.79977942  1
  Pm  Pm3  1  0.19427948  0.20039640  0.41104464  1
  Pm  Pm4  1  0.80572052  0.79960360  0.58895536  1
  S  S5  1  0.89906072  0.40580896  0.79606959  1
  S  S6  1  0.10093928  0.59419104  0.20393041  1
  S  S7  1  0.30476510  0.79600048  0.59447032  1
  S  S8  1  0.69523490  0.20399952  0.40552968  1
