# generated using pymatgen
data_Pm8Ge3AuSe4
_symmetry_space_group_name_H-M   'P 1'
_cell_length_a   8.47603604
_cell_length_b   8.53088845
_cell_length_c   8.47627965
_cell_angle_alpha   119.79081528
_cell_angle_beta   119.99904928
_cell_angle_gamma   90.00000000
_symmetry_Int_Tables_number   1
_chemical_formula_structural   Pm8Ge3AuSe4
_chemical_formula_sum   'Pm8 Ge3 Au1 Se4'
_cell_volume   434.75990987
_cell_formula_units_Z   1
loop_
 _symmetry_equiv_pos_site_id
 _symmetry_equiv_pos_as_xyz
  1  'x, y, z'
loop_
 _atom_site_type_symbol
 _atom_site_label
 _atom_site_symmetry_multiplicity
 _atom_site_fract_x
 _atom_site_fract_y
 _atom_site_fract_z
 _atom_site_occupancy
  Pm  Pm0  1  0.25304327  0.74657825  0.99349989  1
  Pm  Pm1  1  0.25304024  0.74658200  0.50608047  1
  Pm  Pm2  1  0.25311190  0.25931791  0.50622380  1
  Pm  Pm3  1  0.74045662  0.74657825  0.99349989  1
  Pm  Pm4  1  0.25954338  0.25342175  0.00650011  1
  Pm  Pm5  1  0.74688810  0.74068209  0.49377620  1
  Pm  Pm6  1  0.74695976  0.25341800  0.49391953  1
  Pm  Pm7  1  0.74695673  0.25342175  0.00650011  1
  Ge  Ge8  1  0.50000000  0.50000000  0.00000000  1
  Ge  Ge9  1  0.50000000  0.50000000  0.50000000  1
  Ge  Ge10  1  -0.00000000  0.50000000  0.50000000  1
  Au  Au11  1  0.00000000  0.50000000  0.00000000  1
  Se  Se12  1  0.50000000  0.00000000  0.00000000  1
  Se  Se13  1  0.50000000  0.00000000  0.50000000  1
  Se  Se14  1  0.00000000  0.00000000  0.00000000  1
  Se  Se15  1  -0.00000000  0.00000000  0.50000000  1
