# generated using pymatgen
data_Sr6Pt2I3Cl
_symmetry_space_group_name_H-M   'P 1'
_cell_length_a   7.81565631
_cell_length_b   7.81565631
_cell_length_c   8.61239897
_cell_angle_alpha   98.69319303
_cell_angle_beta   98.69319298
_cell_angle_gamma   120.11791179
_symmetry_Int_Tables_number   1
_chemical_formula_structural   Sr6Pt2I3Cl
_chemical_formula_sum   'Sr6 Pt2 I3 Cl1'
_cell_volume   433.69273732
_cell_formula_units_Z   1
loop_
 _symmetry_equiv_pos_site_id
 _symmetry_equiv_pos_as_xyz
  1  'x, y, z'
loop_
 _atom_site_type_symbol
 _atom_site_label
 _atom_site_symmetry_multiplicity
 _atom_site_fract_x
 _atom_site_fract_y
 _atom_site_fract_z
 _atom_site_occupancy
  Sr  Sr0  1  0.93453420  0.58115121  0.80064539  1
  Sr  Sr1  1  0.71312094  0.71312094  0.19702964  1
  Sr  Sr2  1  0.06546580  0.41884879  0.19935461  1
  Sr  Sr3  1  0.58115121  0.93453420  0.80064539  1
  Sr  Sr4  1  0.28687906  0.28687906  0.80297036  1
  Sr  Sr5  1  0.41884879  0.06546580  0.19935461  1
  Pt  Pt6  1  0.33284518  0.66715482  -0.00000000  1
  Pt  Pt7  1  0.66715482  0.33284518  -0.00000000  1
  I  I8  1  0.15929780  0.84070220  0.50000000  1
  I  I9  1  0.84070220  0.15929780  0.50000000  1
  I  I10  1  0.50000000  0.50000000  0.50000000  1
  Cl  Cl11  1  0.00000000  0.00000000  0.00000000  1
