# generated using pymatgen
data_Pm4Tl3Ga
_symmetry_space_group_name_H-M   'P 1'
_cell_length_a   3.78811028
_cell_length_b   3.78811028
_cell_length_c   15.66766446
_cell_angle_alpha   90.00000000
_cell_angle_beta   90.00000000
_cell_angle_gamma   90.00000000
_symmetry_Int_Tables_number   1
_chemical_formula_structural   Pm4Tl3Ga
_chemical_formula_sum   'Pm4 Tl3 Ga1'
_cell_volume   224.82753018
_cell_formula_units_Z   1
loop_
 _symmetry_equiv_pos_site_id
 _symmetry_equiv_pos_as_xyz
  1  'x, y, z'
loop_
 _atom_site_type_symbol
 _atom_site_label
 _atom_site_symmetry_multiplicity
 _atom_site_fract_x
 _atom_site_fract_y
 _atom_site_fract_z
 _atom_site_occupancy
  Tl  Tl0  1  0.50000000  0.50000000  0.24241119  1
  Tl  Tl1  1  0.50000000  0.50000000  0.50000000  1
  Tl  Tl2  1  0.50000000  0.50000000  0.75758881  1
  Ga  Ga3  1  0.50000000  0.50000000  0.00000000  1
  Pm  Pm4  1  0.00000000  0.00000000  0.88728882  1
  Pm  Pm5  1  0.00000000  0.00000000  0.11271118  1
  Pm  Pm6  1  0.00000000  0.00000000  0.37057848  1
  Pm  Pm7  1  0.00000000  0.00000000  0.62942152  1
