# generated using pymatgen
data_PmGaSb2
_symmetry_space_group_name_H-M   'P 1'
_cell_length_a   4.36380065
_cell_length_b   4.36380049
_cell_length_c   11.44328041
_cell_angle_alpha   94.58474500
_cell_angle_beta   94.58474699
_cell_angle_gamma   90.03814373
_symmetry_Int_Tables_number   1
_chemical_formula_structural   PmGaSb2
_chemical_formula_sum   'Pm2 Ga2 Sb4'
_cell_volume   216.51381401
_cell_formula_units_Z   2
loop_
 _symmetry_equiv_pos_site_id
 _symmetry_equiv_pos_as_xyz
  1  'x, y, z'
loop_
 _atom_site_type_symbol
 _atom_site_label
 _atom_site_symmetry_multiplicity
 _atom_site_fract_x
 _atom_site_fract_y
 _atom_site_fract_z
 _atom_site_occupancy
  Pm  Pm0  1  0.95344026  0.95344026  0.78177240  1
  Pm  Pm1  1  0.04655974  0.04655974  0.21822760  1
  Ga  Ga2  1  0.21746058  0.78253942  0.50000000  1
  Ga  Ga3  1  0.78253942  0.21746058  0.50000000  1
  Sb  Sb4  1  0.56470049  0.56470049  0.30750471  1
  Sb  Sb5  1  0.43529951  0.43529951  0.69249529  1
  Sb  Sb6  1  0.50000000  0.00000000  0.00000000  1
  Sb  Sb7  1  0.00000000  0.50000000  0.00000000  1
