# generated using pymatgen
data_CoBH
_symmetry_space_group_name_H-M   'P 1'
_cell_length_a   2.49956293
_cell_length_b   2.49956293
_cell_length_c   7.57021748
_cell_angle_alpha   99.50257218
_cell_angle_beta   99.50257218
_cell_angle_gamma   90.00000000
_symmetry_Int_Tables_number   1
_chemical_formula_structural   CoBH
_chemical_formula_sum   'Co2 B2 H2'
_cell_volume   45.99014993
_cell_formula_units_Z   2
loop_
 _symmetry_equiv_pos_site_id
 _symmetry_equiv_pos_as_xyz
  1  'x, y, z'
loop_
 _atom_site_type_symbol
 _atom_site_label
 _atom_site_symmetry_multiplicity
 _atom_site_fract_x
 _atom_site_fract_y
 _atom_site_fract_z
 _atom_site_occupancy
  H  H0  1  0.59289668  0.59289668  0.18579235  1
  H  H1  1  0.40710332  0.40710332  0.81420765  1
  B  B2  1  0.28274039  0.28274039  0.56548078  1
  B  B3  1  0.71725961  0.71725961  0.43451922  1
  Co  Co4  1  0.14464808  0.14464808  0.28929616  1
  Co  Co5  1  0.85535192  0.85535192  0.71070384  1
