# generated using pymatgen
data_BeP2Ru
_symmetry_space_group_name_H-M   'P 1'
_cell_length_a   3.77465101
_cell_length_b   3.20880328
_cell_length_c   4.51938252
_cell_angle_alpha   69.21650263
_cell_angle_beta   90.00000000
_cell_angle_gamma   90.00000000
_symmetry_Int_Tables_number   1
_chemical_formula_structural   BeP2Ru
_chemical_formula_sum   'Be1 P2 Ru1'
_cell_volume   51.17727143
_cell_formula_units_Z   1
loop_
 _symmetry_equiv_pos_site_id
 _symmetry_equiv_pos_as_xyz
  1  'x, y, z'
loop_
 _atom_site_type_symbol
 _atom_site_label
 _atom_site_symmetry_multiplicity
 _atom_site_fract_x
 _atom_site_fract_y
 _atom_site_fract_z
 _atom_site_occupancy
  Ru  Ru0  1  0.00000000  0.70115851  0.47310098  1
  Be  Be1  1  0.50000000  0.53255265  0.81032520  1
  P  P2  1  0.00000000  0.98949287  0.89582775  1
  P  P3  1  0.50000000  0.27679597  0.32074606  1
