# generated using pymatgen
data_KBa(AlCl4)2
_symmetry_space_group_name_H-M   'P 1'
_cell_length_a   6.89470070
_cell_length_b   6.89470069
_cell_length_c   10.50094916
_cell_angle_alpha   70.83501785
_cell_angle_beta   70.83501785
_cell_angle_gamma   59.99999996
_symmetry_Int_Tables_number   1
_chemical_formula_structural   KBa(AlCl4)2
_chemical_formula_sum   'K1 Ba1 Al2 Cl8'
_cell_volume   400.03994249
_cell_formula_units_Z   1
loop_
 _symmetry_equiv_pos_site_id
 _symmetry_equiv_pos_as_xyz
  1  'x, y, z'
loop_
 _atom_site_type_symbol
 _atom_site_label
 _atom_site_symmetry_multiplicity
 _atom_site_fract_x
 _atom_site_fract_y
 _atom_site_fract_z
 _atom_site_occupancy
  K  K0  1  0.50000000  0.50000000  0.50000000  1
  Ba  Ba1  1  0.00000000  0.00000000  0.00000000  1
  Al  Al2  1  0.24326067  0.24326067  0.27021798  1
  Al  Al3  1  0.75673933  0.75673933  0.72978202  1
  Cl  Cl4  1  0.16878130  0.16878130  0.49365510  1
  Cl  Cl5  1  0.55343422  0.30617689  0.19205984  1
  Cl  Cl6  1  0.83121870  0.83121870  0.50634490  1
  Cl  Cl7  1  0.94833005  0.55343422  0.19205984  1
  Cl  Cl8  1  0.05166995  0.44656578  0.80794016  1
  Cl  Cl9  1  0.30617689  0.94833005  0.19205984  1
  Cl  Cl10  1  0.69382311  0.05166995  0.80794016  1
  Cl  Cl11  1  0.44656578  0.69382311  0.80794016  1
