# generated using pymatgen
data_Sm4Bi3Te
_symmetry_space_group_name_H-M   'P 1'
_cell_length_a   7.82787896
_cell_length_b   7.82787896
_cell_length_c   4.52873232
_cell_angle_alpha   90.00000000
_cell_angle_beta   90.00000000
_cell_angle_gamma   109.49736350
_symmetry_Int_Tables_number   1
_chemical_formula_structural   Sm4Bi3Te
_chemical_formula_sum   'Sm4 Bi3 Te1'
_cell_volume   261.58840089
_cell_formula_units_Z   1
loop_
 _symmetry_equiv_pos_site_id
 _symmetry_equiv_pos_as_xyz
  1  'x, y, z'
loop_
 _atom_site_type_symbol
 _atom_site_label
 _atom_site_symmetry_multiplicity
 _atom_site_fract_x
 _atom_site_fract_y
 _atom_site_fract_z
 _atom_site_occupancy
  Bi  Bi0  1  0.50000003  0.50000003  0.00000000  1
  Bi  Bi1  1  0.49999917  0.00000000  0.50000085  1
  Bi  Bi2  1  0.00000000  0.49999917  0.50000085  1
  Sm  Sm3  1  0.74929813  0.25070192  0.00000000  1
  Sm  Sm4  1  0.25070192  0.74929813  0.00000000  1
  Sm  Sm5  1  0.25196494  0.25196494  0.50000085  1
  Sm  Sm6  1  0.74803511  0.74803511  0.50000085  1
  Te  Te7  1  0.00000000  0.00000000  0.00000000  1
