# generated using pymatgen
data_SmTl2Te4As
_symmetry_space_group_name_H-M   'P 1'
_cell_length_a   4.41303057
_cell_length_b   8.45013514
_cell_length_c   7.71107960
_cell_angle_alpha   72.32713625
_cell_angle_beta   89.99974236
_cell_angle_gamma   89.99969031
_symmetry_Int_Tables_number   1
_chemical_formula_structural   SmTl2Te4As
_chemical_formula_sum   'Sm1 Tl2 Te4 As1'
_cell_volume   273.98070127
_cell_formula_units_Z   1
loop_
 _symmetry_equiv_pos_site_id
 _symmetry_equiv_pos_as_xyz
  1  'x, y, z'
loop_
 _atom_site_type_symbol
 _atom_site_label
 _atom_site_symmetry_multiplicity
 _atom_site_fract_x
 _atom_site_fract_y
 _atom_site_fract_z
 _atom_site_occupancy
  Sm  Sm0  1  0.00000050  0.49999400  0.50000450  1
  Tl  Tl1  1  0.00000000  0.00000100  0.99999900  1
  Tl  Tl2  1  0.50000000  0.00000100  0.49999900  1
  Te  Te3  1  0.00000300  0.70193802  0.78193479  1
  Te  Te4  1  0.99999600  0.29806348  0.21806371  1
  Te  Te5  1  0.50000200  0.71094272  0.24482681  1
  Te  Te6  1  0.49999700  0.28905828  0.75517219  1
  As  As7  1  0.49999900  0.50000150  0.99999950  1
