# generated using pymatgen
data_CuTe2As
_symmetry_space_group_name_H-M   'P 1'
_cell_length_a   7.82938605
_cell_length_b   7.82938605
_cell_length_c   6.89674432
_cell_angle_alpha   87.66506900
_cell_angle_beta   87.66506900
_cell_angle_gamma   33.62836466
_symmetry_Int_Tables_number   1
_chemical_formula_structural   CuTe2As
_chemical_formula_sum   'Cu2 Te4 As2'
_cell_volume   233.91700542
_cell_formula_units_Z   2
loop_
 _symmetry_equiv_pos_site_id
 _symmetry_equiv_pos_as_xyz
  1  'x, y, z'
loop_
 _atom_site_type_symbol
 _atom_site_label
 _atom_site_symmetry_multiplicity
 _atom_site_fract_x
 _atom_site_fract_y
 _atom_site_fract_z
 _atom_site_occupancy
  Cu  Cu0  1  0.67017408  0.67017408  0.74933903  1
  Cu  Cu1  1  0.39433258  0.39433258  0.51491309  1
  Te  Te2  1  0.49610673  0.49610673  0.81785754  1
  Te  Te3  1  0.22126360  0.22126360  0.58922815  1
  Te  Te4  1  0.95552611  0.95552611  0.36867157  1
  Te  Te5  1  0.73509559  0.73509559  0.08952694  1
  As  As6  1  0.92128538  0.92128538  0.98760724  1
  As  As7  1  0.14463153  0.14463153  0.24829829  1
