# generated using pymatgen
data_ErTm3Tl3Te8
_symmetry_space_group_name_H-M   'P 1'
_cell_length_a   8.69339797
_cell_length_b   8.70709581
_cell_length_c   9.62107058
_cell_angle_alpha   116.96672560
_cell_angle_beta   90.00022890
_cell_angle_gamma   119.96244696
_symmetry_Int_Tables_number   1
_chemical_formula_structural   ErTm3Tl3Te8
_chemical_formula_sum   'Er1 Tm3 Tl3 Te8'
_cell_volume   537.59570200
_cell_formula_units_Z   1
loop_
 _symmetry_equiv_pos_site_id
 _symmetry_equiv_pos_as_xyz
  1  'x, y, z'
loop_
 _atom_site_type_symbol
 _atom_site_label
 _atom_site_symmetry_multiplicity
 _atom_site_fract_x
 _atom_site_fract_y
 _atom_site_fract_z
 _atom_site_occupancy
  Er  Er0  1  -0.00000000  0.00000000  0.50000000  1
  Tm  Tm1  1  0.50000000  0.00000000  0.50000000  1
  Tm  Tm2  1  0.50000000  0.50000000  0.50000000  1
  Tm  Tm3  1  0.00000000  0.50000000  0.50000000  1
  Tl  Tl4  1  0.00000000  0.00000000  0.00000000  1
  Tl  Tl5  1  0.00000000  0.50000000  -0.00000000  1
  Tl  Tl6  1  0.50000000  0.50000000  -0.00000000  1
  Te  Te7  1  0.26244670  0.52490686  0.28737307  1
  Te  Te8  1  0.73755330  0.47509314  0.71262693  1
  Te  Te9  1  0.76104332  0.52209701  0.28726497  1
  Te  Te10  1  0.23895668  0.47790299  0.71273503  1
  Te  Te11  1  0.76101166  0.02623338  0.28725862  1
  Te  Te12  1  0.23898834  0.97376662  0.71274138  1
  Te  Te13  1  0.26519432  0.02623761  0.28727670  1
  Te  Te14  1  0.73480568  0.97376239  0.71272330  1
