# generated using pymatgen
data_TbAgB4
_symmetry_space_group_name_H-M   'P 1'
_cell_length_a   3.22710986
_cell_length_b   3.22710986
_cell_length_c   7.34120578
_cell_angle_alpha   90.00000000
_cell_angle_beta   90.00000000
_cell_angle_gamma   119.99999999
_symmetry_Int_Tables_number   1
_chemical_formula_structural   TbAgB4
_chemical_formula_sum   'Tb1 Ag1 B4'
_cell_volume   66.21029626
_cell_formula_units_Z   1
loop_
 _symmetry_equiv_pos_site_id
 _symmetry_equiv_pos_as_xyz
  1  'x, y, z'
loop_
 _atom_site_type_symbol
 _atom_site_label
 _atom_site_symmetry_multiplicity
 _atom_site_fract_x
 _atom_site_fract_y
 _atom_site_fract_z
 _atom_site_occupancy
  Ag  Ag0  1  0.00000000  0.00000000  0.00000000  1
  B  B1  1  0.66666579  0.33333463  0.24547330  1
  B  B2  1  0.33333284  0.66666568  0.24547330  1
  B  B3  1  0.66666579  0.33333463  0.75452728  1
  B  B4  1  0.33333284  0.66666568  0.75452728  1
  Tb  Tb5  1  0.00000000  0.00000000  0.49999961  1
