# generated using pymatgen
data_Pm7(CuRu)2
_symmetry_space_group_name_H-M   'P 1'
_cell_length_a   6.82468287
_cell_length_b   7.09882453
_cell_length_c   6.82468288
_cell_angle_alpha   89.99968510
_cell_angle_beta   112.64871882
_cell_angle_gamma   90.00031493
_symmetry_Int_Tables_number   1
_chemical_formula_structural   Pm7(CuRu)2
_chemical_formula_sum   'Pm7 Cu2 Ru2'
_cell_volume   305.13926331
_cell_formula_units_Z   1
loop_
 _symmetry_equiv_pos_site_id
 _symmetry_equiv_pos_as_xyz
  1  'x, y, z'
loop_
 _atom_site_type_symbol
 _atom_site_label
 _atom_site_symmetry_multiplicity
 _atom_site_fract_x
 _atom_site_fract_y
 _atom_site_fract_z
 _atom_site_occupancy
  Pm  Pm0  1  0.99980778  0.26720264  0.50031948  1
  Pm  Pm1  1  0.50031948  0.73279736  0.99980778  1
  Pm  Pm2  1  0.00019222  0.73279736  0.49968052  1
  Pm  Pm3  1  0.49968052  0.26720264  0.00019222  1
  Pm  Pm4  1  0.00000000  0.00000000  0.00000000  1
  Pm  Pm5  1  0.50020629  0.74336973  0.49979371  1
  Pm  Pm6  1  0.49979371  0.25663027  0.50020629  1
  Cu  Cu7  1  0.83835424  0.50000000  0.83835424  1
  Cu  Cu8  1  0.16164576  0.50000000  0.16164576  1
  Ru  Ru9  1  0.69220678  0.99997888  0.30779322  1
  Ru  Ru10  1  0.30779322  0.00002112  0.69220678  1
