# generated using pymatgen
data_CePm3U2N6
_symmetry_space_group_name_H-M   'P 1'
_cell_length_a   6.11475026
_cell_length_b   6.11475026
_cell_length_c   6.12091056
_cell_angle_alpha   99.61260684
_cell_angle_beta   99.61260678
_cell_angle_gamma   119.92507888
_symmetry_Int_Tables_number   1
_chemical_formula_structural   CePm3U2N6
_chemical_formula_sum   'Ce1 Pm3 U2 N6'
_cell_volume   186.98760035
_cell_formula_units_Z   1
loop_
 _symmetry_equiv_pos_site_id
 _symmetry_equiv_pos_as_xyz
  1  'x, y, z'
loop_
 _atom_site_type_symbol
 _atom_site_label
 _atom_site_symmetry_multiplicity
 _atom_site_fract_x
 _atom_site_fract_y
 _atom_site_fract_z
 _atom_site_occupancy
  Ce  Ce0  1  0.00000000  0.00000000  0.00000000  1
  Pm  Pm1  1  0.16454572  0.83545428  0.50000000  1
  Pm  Pm2  1  0.83545428  0.16454572  0.50000000  1
  Pm  Pm3  1  0.50000000  0.50000000  0.50000000  1
  U  U4  1  0.33302494  0.66697506  0.00000000  1
  U  U5  1  0.66697506  0.33302494  0.00000000  1
  N  N6  1  0.92764176  0.57452388  0.78258924  1
  N  N7  1  0.71796503  0.71796503  0.21398067  1
  N  N8  1  0.07235824  0.42547612  0.21741076  1
  N  N9  1  0.57452388  0.92764176  0.78258924  1
  N  N10  1  0.28203497  0.28203497  0.78601933  1
  N  N11  1  0.42547612  0.07235824  0.21741076  1
