# generated using pymatgen
data_Fe7Te8
_symmetry_space_group_name_H-M   'P 1'
_cell_length_a   7.05253754
_cell_length_b   6.83302230
_cell_length_c   19.94518030
_cell_angle_alpha   90.00000000
_cell_angle_beta   90.00000000
_cell_angle_gamma   101.52235143
_symmetry_Int_Tables_number   1
_chemical_formula_structural   Fe7Te8
_chemical_formula_sum   'Fe7 Te8'
_cell_volume   941.79073645
_cell_formula_units_Z   1
loop_
 _symmetry_equiv_pos_site_id
 _symmetry_equiv_pos_as_xyz
  1  'x, y, z'
loop_
 _atom_site_type_symbol
 _atom_site_label
 _atom_site_symmetry_multiplicity
 _atom_site_fract_x
 _atom_site_fract_y
 _atom_site_fract_z
 _atom_site_occupancy
  Te  Te0  1  0.27961387  0.86220432  0.62440207  1
  Te  Te1  1  0.95243354  0.25427807  0.37646345  1
  Te  Te2  1  0.81070334  0.62109396  0.55615817  1
  Te  Te3  1  0.72043367  0.13807756  0.62425058  1
  Te  Te4  1  0.04771894  0.74641052  0.37649406  1
  Te  Te5  1  0.19029992  0.37867427  0.55653903  1
  Te  Te6  1  0.49403489  0.72301674  0.41744960  1
  Te  Te7  1  0.50548892  0.27675302  0.41731621  1
  Fe  Fe8  1  0.43464146  0.14382398  0.53793135  1
  Fe  Fe9  1  0.80217943  0.22145278  0.49703077  1
  Fe  Fe10  1  0.83761633  0.88775899  0.45866079  1
  Fe  Fe11  1  0.56532082  0.85545760  0.53808314  1
  Fe  Fe12  1  0.19723288  0.77829775  0.49723452  1
  Fe  Fe13  1  0.16202272  0.11250372  0.45870087  1
  Fe  Fe14  1  0.00010758  0.00012471  0.56328539  1
