# generated using pymatgen
data_CsCu2(PSe3)2
_symmetry_space_group_name_H-M   'P 1'
_cell_length_a   6.84826610
_cell_length_b   9.66811070
_cell_length_c   9.15715365
_cell_angle_alpha   134.18731964
_cell_angle_beta   90.96296793
_cell_angle_gamma   65.17225546
_symmetry_Int_Tables_number   1
_chemical_formula_structural   CsCu2(PSe3)2
_chemical_formula_sum   'Cs1 Cu2 P2 Se6'
_cell_volume   357.36750889
_cell_formula_units_Z   1
loop_
 _symmetry_equiv_pos_site_id
 _symmetry_equiv_pos_as_xyz
  1  'x, y, z'
loop_
 _atom_site_type_symbol
 _atom_site_label
 _atom_site_symmetry_multiplicity
 _atom_site_fract_x
 _atom_site_fract_y
 _atom_site_fract_z
 _atom_site_occupancy
  Cs  Cs0  1  0.50000000  0.00000000  0.50000000  1
  Cu  Cu1  1  0.06188000  0.78387898  0.81688840  1
  Cu  Cu2  1  0.93812000  0.21612102  0.18311160  1
  P  P3  1  0.68170629  0.54802301  0.78909741  1
  P  P4  1  0.31829371  0.45197699  0.21090259  1
  Se  Se5  1  0.30395431  0.84236469  0.03625517  1
  Se  Se6  1  0.05609897  0.36997006  0.11216507  1
  Se  Se7  1  0.25234574  0.74170863  0.56014419  1
  Se  Se8  1  0.94390103  0.63002994  0.88783493  1
  Se  Se9  1  0.74765426  0.25829137  0.43985581  1
  Se  Se10  1  0.69604569  0.15763531  0.96374483  1
