# generated using pymatgen
data_Pm8SnPb6
_symmetry_space_group_name_H-M   'P 1'
_cell_length_a   9.70821151
_cell_length_b   9.70821151
_cell_length_c   8.36907197
_cell_angle_alpha   54.54908747
_cell_angle_beta   54.54908744
_cell_angle_gamma   59.99999997
_symmetry_Int_Tables_number   1
_chemical_formula_structural   Pm8SnPb6
_chemical_formula_sum   'Pm8 Sn1 Pb6'
_cell_volume   507.27425714
_cell_formula_units_Z   1
loop_
 _symmetry_equiv_pos_site_id
 _symmetry_equiv_pos_as_xyz
  1  'x, y, z'
loop_
 _atom_site_type_symbol
 _atom_site_label
 _atom_site_symmetry_multiplicity
 _atom_site_fract_x
 _atom_site_fract_y
 _atom_site_fract_z
 _atom_site_occupancy
  Pm  Pm0  1  0.65135076  0.16830304  0.28443865  1
  Pm  Pm1  1  0.83169696  0.10409245  0.71556135  1
  Pm  Pm2  1  0.10409245  0.34864924  0.71556135  1
  Pm  Pm3  1  0.68357372  0.68357372  0.94927883  1
  Pm  Pm4  1  0.31642628  0.31642628  0.05072117  1
  Pm  Pm5  1  0.89590755  0.65135076  0.28443865  1
  Pm  Pm6  1  0.16830304  0.89590755  0.28443865  1
  Pm  Pm7  1  0.34864924  0.83169696  0.71556135  1
  Sn  Sn8  1  0.00000000  0.00000000  0.00000000  1
  Pb  Pb9  1  0.45660502  0.08420998  0.78574591  1
  Pb  Pb10  1  0.91579002  0.32656091  0.21425409  1
  Pb  Pb11  1  0.32656091  0.54339498  0.21425409  1
  Pb  Pb12  1  0.67343909  0.45660502  0.78574591  1
  Pb  Pb13  1  0.08420998  0.67343909  0.78574591  1
  Pb  Pb14  1  0.54339498  0.91579002  0.21425409  1
