# generated using pymatgen
data_Nb3B
_symmetry_space_group_name_H-M   'P 1'
_cell_length_a   3.23853426
_cell_length_b   5.24740660
_cell_length_c   4.82351540
_cell_angle_alpha   122.95226139
_cell_angle_beta   109.61527426
_cell_angle_gamma   90.00000000
_symmetry_Int_Tables_number   1
_chemical_formula_structural   Nb3B
_chemical_formula_sum   'Nb3 B1'
_cell_volume   63.03904455
_cell_formula_units_Z   1
loop_
 _symmetry_equiv_pos_site_id
 _symmetry_equiv_pos_as_xyz
  1  'x, y, z'
loop_
 _atom_site_type_symbol
 _atom_site_label
 _atom_site_symmetry_multiplicity
 _atom_site_fract_x
 _atom_site_fract_y
 _atom_site_fract_z
 _atom_site_occupancy
  Nb  Nb0  1  0.30558580  0.66352371  0.61117260  1
  Nb  Nb1  1  0.50000000  0.38356395  0.00000000  1
  Nb  Nb2  1  0.69441420  0.05235011  0.38882740  1
  B  B3  1  1.00000000  0.06722823  1.00000000  1
