# generated using pymatgen
data_H3He12(LiBe)2
_symmetry_space_group_name_H-M   'P 1'
_cell_length_a   10.04154643
_cell_length_b   10.04154643
_cell_length_c   10.04154643
_cell_angle_alpha   90.00000000
_cell_angle_beta   90.00000000
_cell_angle_gamma   90.00000000
_symmetry_Int_Tables_number   1
_chemical_formula_structural   H3He12(LiBe)2
_chemical_formula_sum   'H12 He48 Li8 Be8'
_cell_volume   1012.51578534
_cell_formula_units_Z   4
loop_
 _symmetry_equiv_pos_site_id
 _symmetry_equiv_pos_as_xyz
  1  'x, y, z'
loop_
 _atom_site_type_symbol
 _atom_site_label
 _atom_site_symmetry_multiplicity
 _atom_site_fract_x
 _atom_site_fract_y
 _atom_site_fract_z
 _atom_site_occupancy
  H  H0  1  0.62643651  0.45976087  0.27220468  1
  H  H1  1  0.87356349  0.54023913  0.77220468  1
  H  H2  1  0.37356349  0.95976087  0.22779532  1
  H  H3  1  0.12643651  0.04023913  0.72779532  1
  H  H4  1  0.27220468  0.62643651  0.45976087  1
  H  H5  1  0.77220468  0.87356349  0.54023913  1
  H  H6  1  0.22779532  0.37356349  0.95976087  1
  H  H7  1  0.72779532  0.12643651  0.04023913  1
  H  H8  1  0.45976087  0.27220468  0.62643651  1
  H  H9  1  0.54023913  0.77220468  0.87356349  1
  H  H10  1  0.95976087  0.22779532  0.37356349  1
  H  H11  1  0.04023913  0.72779532  0.12643651  1
  He  He12  1  0.65255706  0.50323719  0.41799041  1
  He  He13  1  0.84744294  0.49676281  0.91799041  1
  He  He14  1  0.34744294  0.00323719  0.08200959  1
  He  He15  1  0.15255706  0.99676281  0.58200959  1
  He  He16  1  0.41799041  0.65255706  0.50323719  1
  He  He17  1  0.91799041  0.84744294  0.49676281  1
  He  He18  1  0.08200959  0.34744294  0.00323719  1
  He  He19  1  0.58200959  0.15255706  0.99676281  1
  He  He20  1  0.50323719  0.41799041  0.65255706  1
  He  He21  1  0.49676281  0.91799041  0.84744294  1
  He  He22  1  0.00323719  0.08200959  0.34744294  1
  He  He23  1  0.99676281  0.58200959  0.15255706  1
  He  He24  1  0.75735952  0.47887367  0.19089105  1
  He  He25  1  0.74264048  0.52112633  0.69089105  1
  He  He26  1  0.24264048  0.97887367  0.30910895  1
  He  He27  1  0.25735952  0.02112633  0.80910895  1
  He  He28  1  0.19089105  0.75735952  0.47887367  1
  He  He29  1  0.69089105  0.74264048  0.52112633  1
  He  He30  1  0.30910895  0.24264048  0.97887367  1
  He  He31  1  0.80910895  0.25735952  0.02112633  1
  He  He32  1  0.47887367  0.19089105  0.75735952  1
  He  He33  1  0.52112633  0.69089105  0.74264048  1
  He  He34  1  0.97887367  0.30910895  0.24264048  1
  He  He35  1  0.02112633  0.80910895  0.25735952  1
  He  He36  1  0.57620126  0.31250014  0.26725026  1
  He  He37  1  0.92379874  0.68749986  0.76725026  1
  He  He38  1  0.42379874  0.81250014  0.23274974  1
  He  He39  1  0.07620126  0.18749986  0.73274974  1
  He  He40  1  0.26725026  0.57620126  0.31250014  1
  He  He41  1  0.76725026  0.92379874  0.68749986  1
  He  He42  1  0.23274974  0.42379874  0.81250014  1
  He  He43  1  0.73274974  0.07620126  0.18749986  1
  He  He44  1  0.31250014  0.26725026  0.57620126  1
  He  He45  1  0.68749986  0.76725026  0.92379874  1
  He  He46  1  0.81250014  0.23274974  0.42379874  1
  He  He47  1  0.18749986  0.73274974  0.07620126  1
  He  He48  1  0.52200711  0.55140485  0.20027193  1
  He  He49  1  0.97799289  0.44859515  0.70027193  1
  He  He50  1  0.47799289  0.05140485  0.29972807  1
  He  He51  1  0.02200711  0.94859515  0.79972807  1
  He  He52  1  0.20027193  0.52200711  0.55140485  1
  He  He53  1  0.70027193  0.97799289  0.44859515  1
  He  He54  1  0.29972807  0.47799289  0.05140485  1
  He  He55  1  0.79972807  0.02200711  0.94859515  1
  He  He56  1  0.55140485  0.20027193  0.52200711  1
  He  He57  1  0.44859515  0.70027193  0.97799289  1
  He  He58  1  0.05140485  0.29972807  0.47799289  1
  He  He59  1  0.94859515  0.79972807  0.02200711  1
  Li  Li60  1  0.06470918  0.06470918  0.06470918  1
  Li  Li61  1  0.43529082  0.93529082  0.56470918  1
  Li  Li62  1  0.93529082  0.56470918  0.43529082  1
  Li  Li63  1  0.56470918  0.43529082  0.93529082  1
  Li  Li64  1  0.29923125  0.29923125  0.29923125  1
  Li  Li65  1  0.20076875  0.70076875  0.79923125  1
  Li  Li66  1  0.70076875  0.79923125  0.20076875  1
  Li  Li67  1  0.79923125  0.20076875  0.70076875  1
  Be  Be68  1  0.58574688  0.58574688  0.58574688  1
  Be  Be69  1  0.91425312  0.41425312  0.08574688  1
  Be  Be70  1  0.41425312  0.08574688  0.91425312  1
  Be  Be71  1  0.08574688  0.91425312  0.41425312  1
  Be  Be72  1  0.85386385  0.85386385  0.85386385  1
  Be  Be73  1  0.64613615  0.14613615  0.35386385  1
  Be  Be74  1  0.14613615  0.35386385  0.64613615  1
  Be  Be75  1  0.35386385  0.64613615  0.14613615  1
