# generated using pymatgen
data_HHeLi4
_symmetry_space_group_name_H-M   'P 1'
_cell_length_a   12.19538375
_cell_length_b   12.19538375
_cell_length_c   12.19538375
_cell_angle_alpha   127.58958952
_cell_angle_beta   127.58958952
_cell_angle_gamma   77.29082638
_symmetry_Int_Tables_number   1
_chemical_formula_structural   HHeLi4
_chemical_formula_sum   'H8 He8 Li32'
_cell_volume   1104.95610553
_cell_formula_units_Z   8
loop_
 _symmetry_equiv_pos_site_id
 _symmetry_equiv_pos_as_xyz
  1  'x, y, z'
loop_
 _atom_site_type_symbol
 _atom_site_label
 _atom_site_symmetry_multiplicity
 _atom_site_fract_x
 _atom_site_fract_y
 _atom_site_fract_z
 _atom_site_occupancy
  H  H0  1  0.12500000  0.87500000  0.75000000  1
  H  H1  1  0.37500000  0.62500000  0.25000000  1
  H  H2  1  0.87500000  0.12500000  0.25000000  1
  H  H3  1  0.62500000  0.37500000  0.75000000  1
  H  H4  1  0.37500000  0.12500000  0.75000000  1
  H  H5  1  0.62500000  0.87500000  0.25000000  1
  H  H6  1  0.12500000  0.37500000  0.25000000  1
  H  H7  1  0.87500000  0.62500000  0.75000000  1
  He  He8  1  0.28752329  0.25000000  0.03752329  1
  He  He9  1  0.21247671  0.75000000  0.46247671  1
  He  He10  1  0.75000000  0.71247671  0.46247671  1
  He  He11  1  0.25000000  0.78752329  0.03752329  1
  He  He12  1  0.71247671  0.75000000  0.96247671  1
  He  He13  1  0.78752329  0.25000000  0.53752329  1
  He  He14  1  0.25000000  0.28752329  0.53752329  1
  He  He15  1  0.75000000  0.21247671  0.96247671  1
  Li  Li16  1  0.34434988  0.77514836  0.93915390  1
  Li  Li17  1  0.83599446  0.90519598  0.56084610  1
  Li  Li18  1  0.27514836  0.33599446  0.93079848  1
  Li  Li19  1  0.40519598  0.84434988  0.56920152  1
  Li  Li20  1  0.15565012  0.59480402  0.93079848  1
  Li  Li21  1  0.66400554  0.72485164  0.56920152  1
  Li  Li22  1  0.22485164  0.65565012  0.56084610  1
  Li  Li23  1  0.09480402  0.16400554  0.93915390  1
  Li  Li24  1  0.65565012  0.22485164  0.06084610  1
  Li  Li25  1  0.16400554  0.09480402  0.43915390  1
  Li  Li26  1  0.72485164  0.66400554  0.06920152  1
  Li  Li27  1  0.59480402  0.15565012  0.43079848  1
  Li  Li28  1  0.84434988  0.40519598  0.06920152  1
  Li  Li29  1  0.33599446  0.27514836  0.43079848  1
  Li  Li30  1  0.77514836  0.34434988  0.43915390  1
  Li  Li31  1  0.90519598  0.83599446  0.06084610  1
  Li  Li32  1  0.09009518  0.88875542  0.97253640  1
  Li  Li33  1  0.91621902  0.61755878  0.52746360  1
  Li  Li34  1  0.38875542  0.41621902  0.29866023  1
  Li  Li35  1  0.11755878  0.59009518  0.20133977  1
  Li  Li36  1  0.40990482  0.88244122  0.29866023  1
  Li  Li37  1  0.58378098  0.61124458  0.20133977  1
  Li  Li38  1  0.11124458  0.90990482  0.52746360  1
  Li  Li39  1  0.38244122  0.08378098  0.97253640  1
  Li  Li40  1  0.90990482  0.11124458  0.02746360  1
  Li  Li41  1  0.08378098  0.38244122  0.47253640  1
  Li  Li42  1  0.61124458  0.58378098  0.70133977  1
  Li  Li43  1  0.88244122  0.40990482  0.79866023  1
  Li  Li44  1  0.59009518  0.11755878  0.70133977  1
  Li  Li45  1  0.41621902  0.38875542  0.79866023  1
  Li  Li46  1  0.88875542  0.09009518  0.47253640  1
  Li  Li47  1  0.61755878  0.91621902  0.02746360  1
