# generated using pymatgen
data_H3He
_symmetry_space_group_name_H-M   'P 1'
_cell_length_a   7.04668243
_cell_length_b   7.04668243
_cell_length_c   7.23716649
_cell_angle_alpha   90.00000000
_cell_angle_beta   90.00000000
_cell_angle_gamma   90.00000000
_symmetry_Int_Tables_number   1
_chemical_formula_structural   H3He
_chemical_formula_sum   'H12 He4'
_cell_volume   359.36680870
_cell_formula_units_Z   4
loop_
 _symmetry_equiv_pos_site_id
 _symmetry_equiv_pos_as_xyz
  1  'x, y, z'
loop_
 _atom_site_type_symbol
 _atom_site_label
 _atom_site_symmetry_multiplicity
 _atom_site_fract_x
 _atom_site_fract_y
 _atom_site_fract_z
 _atom_site_occupancy
  H  H0  1  0.00000000  0.50000000  0.00000000  1
  H  H1  1  0.00000000  0.50000000  0.50000000  1
  H  H2  1  0.50000000  0.00000000  0.50000000  1
  H  H3  1  0.50000000  0.00000000  0.00000000  1
  H  H4  1  0.15170435  0.15170435  0.25659508  1
  H  H5  1  0.84829565  0.84829565  0.25659508  1
  H  H6  1  0.34829565  0.65170435  0.75659508  1
  H  H7  1  0.65170435  0.34829565  0.75659508  1
  H  H8  1  0.34829565  0.65170435  0.24340492  1
  H  H9  1  0.65170435  0.34829565  0.24340492  1
  H  H10  1  0.15170435  0.15170435  0.74340492  1
  H  H11  1  0.84829565  0.84829565  0.74340492  1
  He  He12  1  0.34442286  0.34442286  -0.00000000  1
  He  He13  1  0.65557714  0.65557714  0.00000000  1
  He  He14  1  0.15557714  0.84442286  0.50000000  1
  He  He15  1  0.84442286  0.15557714  0.50000000  1
