# generated using pymatgen
data_HHeLi5
_symmetry_space_group_name_H-M   'P 1'
_cell_length_a   10.60049682
_cell_length_b   10.60049682
_cell_length_c   10.60049682
_cell_angle_alpha   130.46295116
_cell_angle_beta   117.29673961
_cell_angle_gamma   83.82559718
_symmetry_Int_Tables_number   1
_chemical_formula_structural   HHeLi5
_chemical_formula_sum   'H4 He4 Li20'
_cell_volume   772.88792832
_cell_formula_units_Z   4
loop_
 _symmetry_equiv_pos_site_id
 _symmetry_equiv_pos_as_xyz
  1  'x, y, z'
loop_
 _atom_site_type_symbol
 _atom_site_label
 _atom_site_symmetry_multiplicity
 _atom_site_fract_x
 _atom_site_fract_y
 _atom_site_fract_z
 _atom_site_occupancy
  H  H0  1  0.61284225  0.75000000  0.86284225  1
  H  H1  1  0.88715775  0.75000000  0.13715775  1
  H  H2  1  0.38715775  0.25000000  0.13715775  1
  H  H3  1  0.11284225  0.25000000  0.86284225  1
  He  He4  1  0.75000000  0.25000000  0.50000000  1
  He  He5  1  0.25000000  0.75000000  0.50000000  1
  He  He6  1  -0.00000000  -0.00000000  -0.00000000  1
  He  He7  1  0.50000000  0.50000000  -0.00000000  1
  Li  Li8  1  0.51022497  0.84263904  0.05412386  1
  Li  Li9  1  0.78851517  0.45610111  0.94587614  1
  Li  Li10  1  0.71148483  0.65736096  0.66758593  1
  Li  Li11  1  0.98977503  0.04389889  0.33241407  1
  Li  Li12  1  0.48977503  0.15736096  0.94587614  1
  Li  Li13  1  0.21148483  0.54389889  0.05412386  1
  Li  Li14  1  0.28851517  0.34263904  0.33241407  1
  Li  Li15  1  0.01022497  0.95610111  0.66758593  1
  Li  Li16  1  0.71058995  0.19058136  0.11484351  1
  Li  Li17  1  0.07573785  0.59574645  0.88515649  1
  Li  Li18  1  0.42426215  0.30941864  0.52000859  1
  Li  Li19  1  0.78941005  0.90425355  0.47999141  1
  Li  Li20  1  0.28941005  0.80941864  0.88515649  1
  Li  Li21  1  0.92426215  0.40425355  0.11484351  1
  Li  Li22  1  0.57573785  0.69058136  0.47999141  1
  Li  Li23  1  0.21058995  0.09574645  0.52000859  1
  Li  Li24  1  0.66232572  0.93075987  0.59308558  1
  Li  Li25  1  0.33767428  0.06924013  0.40691442  1
  Li  Li26  1  0.16232572  0.56924013  0.73156585  1
  Li  Li27  1  0.83767428  0.43075987  0.26843415  1
