# generated using pymatgen
data_H2He11Li2Be
_symmetry_space_group_name_H-M   'P 1'
_cell_length_a   9.34222052
_cell_length_b   8.25807892
_cell_length_c   8.17130633
_cell_angle_alpha   67.52766463
_cell_angle_beta   61.23518492
_cell_angle_gamma   77.14311666
_symmetry_Int_Tables_number   1
_chemical_formula_structural   H2He11Li2Be
_chemical_formula_sum   'H4 He22 Li4 Be2'
_cell_volume   510.07299740
_cell_formula_units_Z   2
loop_
 _symmetry_equiv_pos_site_id
 _symmetry_equiv_pos_as_xyz
  1  'x, y, z'
loop_
 _atom_site_type_symbol
 _atom_site_label
 _atom_site_symmetry_multiplicity
 _atom_site_fract_x
 _atom_site_fract_y
 _atom_site_fract_z
 _atom_site_occupancy
  H  H0  1  0.80571620  0.62119541  0.47223772  1
  H  H1  1  0.19428380  0.37880459  0.52776228  1
  H  H2  1  0.04930144  0.02945544  0.23495362  1
  H  H3  1  0.95069856  0.97054456  0.76504638  1
  He  He4  1  0.78093951  0.60735187  0.28047979  1
  He  He5  1  0.21906049  0.39264813  0.71952021  1
  He  He6  1  0.62143860  0.71349941  0.61520615  1
  He  He7  1  0.37856140  0.28650059  0.38479385  1
  He  He8  1  0.92447230  0.82739975  0.34831405  1
  He  He9  1  0.07552770  0.17260025  0.65168595  1
  He  He10  1  0.71510563  0.36895434  0.64617234  1
  He  He11  1  0.28489437  0.63104566  0.35382766  1
  He  He12  1  0.06473898  0.47782914  0.33971189  1
  He  He13  1  0.93526102  0.52217086  0.66028811  1
  He  He14  1  0.93217272  0.18772325  0.13204188  1
  He  He15  1  0.06782728  0.81227675  0.86795812  1
  He  He16  1  0.21059116  0.96089053  0.04527564  1
  He  He17  1  0.78940884  0.03910947  0.95472436  1
  He  He18  1  0.19426964  0.22055637  0.18165773  1
  He  He19  1  0.80573036  0.77944363  0.81834227  1
  He  He20  1  0.87300763  0.09269711  0.52582882  1
  He  He21  1  0.12699237  0.90730289  0.47417118  1
  He  He22  1  0.33782148  0.51423675  0.99565835  1
  He  He23  1  0.66217852  0.48576325  0.00434165  1
  He  He24  1  0.54957117  0.09970872  0.76990062  1
  He  He25  1  0.45042883  0.90029128  0.23009938  1
  Li  Li26  1  0.14588563  0.44807458  0.10589071  1
  Li  Li27  1  0.85411437  0.55192542  0.89410929  1
  Li  Li28  1  0.68773473  0.22268703  0.55479600  1
  Li  Li29  1  0.31226527  0.77731297  0.44520400  1
  Be  Be30  1  0.47631229  0.77418808  0.95237358  1
  Be  Be31  1  0.52368771  0.22581192  0.04762642  1
