# generated using pymatgen
data_H4He
_symmetry_space_group_name_H-M   'P 1'
_cell_length_a   7.87592770
_cell_length_b   6.39339532
_cell_length_c   6.88397465
_cell_angle_alpha   71.19172397
_cell_angle_beta   90.00000000
_cell_angle_gamma   90.00000000
_symmetry_Int_Tables_number   1
_chemical_formula_structural   H4He
_chemical_formula_sum   'H8 He2'
_cell_volume   328.12572578
_cell_formula_units_Z   2
loop_
 _symmetry_equiv_pos_site_id
 _symmetry_equiv_pos_as_xyz
  1  'x, y, z'
loop_
 _atom_site_type_symbol
 _atom_site_label
 _atom_site_symmetry_multiplicity
 _atom_site_fract_x
 _atom_site_fract_y
 _atom_site_fract_z
 _atom_site_occupancy
  H  H0  1  0.89867476  0.00070762  0.21011605  1
  H  H1  1  0.89867476  0.49929238  0.78988395  1
  H  H2  1  0.10132524  0.99929238  0.78988395  1
  H  H3  1  0.10132524  0.50070762  0.21011605  1
  H  H4  1  0.65094639  0.96800657  0.75820385  1
  H  H5  1  0.65094639  0.53199343  0.24179615  1
  H  H6  1  0.34905361  0.03199343  0.24179615  1
  H  H7  1  0.34905361  0.46800657  0.75820385  1
  He  He8  1  0.84215823  0.75000000  0.00000000  1
  He  He9  1  0.15784177  0.25000000  0.00000000  1
