# generated using pymatgen
data_HHe2
_symmetry_space_group_name_H-M   'P 1'
_cell_length_a   5.75041171
_cell_length_b   5.75041171
_cell_length_c   5.75041171
_cell_angle_alpha   132.97243726
_cell_angle_beta   100.28373485
_cell_angle_gamma   98.03804635
_symmetry_Int_Tables_number   1
_chemical_formula_structural   HHe2
_chemical_formula_sum   'H2 He4'
_cell_volume   127.54292624
_cell_formula_units_Z   2
loop_
 _symmetry_equiv_pos_site_id
 _symmetry_equiv_pos_as_xyz
  1  'x, y, z'
loop_
 _atom_site_type_symbol
 _atom_site_label
 _atom_site_symmetry_multiplicity
 _atom_site_fract_x
 _atom_site_fract_y
 _atom_site_fract_z
 _atom_site_occupancy
  H  H0  1  0.79960485  0.54960485  0.25000000  1
  H  H1  1  0.20039515  0.45039515  0.75000000  1
  He  He2  1  0.22553309  0.16430322  0.06122987  1
  He  He3  1  0.60307335  0.16430322  0.43877013  1
  He  He4  1  0.39692665  0.83569678  0.56122987  1
  He  He5  1  0.77446691  0.83569678  0.93877013  1
