# generated using pymatgen
data_HHe2Li9
_symmetry_space_group_name_H-M   'P 1'
_cell_length_a   8.33232960
_cell_length_b   8.33224419
_cell_length_c   8.33232960
_cell_angle_alpha   34.31735268
_cell_angle_beta   34.30333156
_cell_angle_gamma   34.31735268
_symmetry_Int_Tables_number   1
_chemical_formula_structural   HHe2Li9
_chemical_formula_sum   'H1 He2 Li9'
_cell_volume   163.94284221
_cell_formula_units_Z   1
loop_
 _symmetry_equiv_pos_site_id
 _symmetry_equiv_pos_as_xyz
  1  'x, y, z'
loop_
 _atom_site_type_symbol
 _atom_site_label
 _atom_site_symmetry_multiplicity
 _atom_site_fract_x
 _atom_site_fract_y
 _atom_site_fract_z
 _atom_site_occupancy
  H  H0  1  0.99994219  0.00007540  0.99994219  1
  He  He1  1  0.14533324  0.14541321  0.14533324  1
  He  He2  1  0.85468137  0.85471882  0.85468137  1
  Li  Li3  1  0.50008093  0.49990812  0.50008093  1
  Li  Li4  1  0.33392066  0.33442705  0.33392066  1
  Li  Li5  1  0.66601417  0.66596919  0.66601417  1
  Li  Li6  1  0.58797656  0.08095071  0.58797656  1
  Li  Li7  1  0.58802433  0.58806181  0.08089056  1
  Li  Li8  1  0.08089056  0.58806181  0.58802433  1
  Li  Li9  1  0.41201154  0.91923559  0.41201154  1
  Li  Li10  1  0.91910410  0.41208914  0.41202034  1
  Li  Li11  1  0.41202034  0.41208914  0.91910410  1
