# generated using pymatgen
data_H9He2LiBe2
_symmetry_space_group_name_H-M   'P 1'
_cell_length_a   6.63552309
_cell_length_b   7.65186420
_cell_length_c   14.41490568
_cell_angle_alpha   90.00000000
_cell_angle_beta   90.00000000
_cell_angle_gamma   90.00000000
_symmetry_Int_Tables_number   1
_chemical_formula_structural   H9He2LiBe2
_chemical_formula_sum   'H36 He8 Li4 Be8'
_cell_volume   731.90417371
_cell_formula_units_Z   4
loop_
 _symmetry_equiv_pos_site_id
 _symmetry_equiv_pos_as_xyz
  1  'x, y, z'
loop_
 _atom_site_type_symbol
 _atom_site_label
 _atom_site_symmetry_multiplicity
 _atom_site_fract_x
 _atom_site_fract_y
 _atom_site_fract_z
 _atom_site_occupancy
  H  H0  1  0.56457668  0.86256408  0.37394998  1
  H  H1  1  0.43542332  0.36256408  0.12605002  1
  H  H2  1  0.06457668  0.13743592  0.62605002  1
  H  H3  1  0.93542332  0.63743592  0.87394998  1
  H  H4  1  0.43542332  0.13743592  0.62605002  1
  H  H5  1  0.56457668  0.63743592  0.87394998  1
  H  H6  1  0.93542332  0.86256408  0.37394998  1
  H  H7  1  0.06457668  0.36256408  0.12605002  1
  H  H8  1  0.25000000  0.03362462  0.26566058  1
  H  H9  1  0.75000000  0.53362462  0.23433942  1
  H  H10  1  0.75000000  0.96637538  0.73433942  1
  H  H11  1  0.25000000  0.46637538  0.76566058  1
  H  H12  1  0.25000000  0.00554538  0.48683363  1
  H  H13  1  0.75000000  0.50554538  0.01316637  1
  H  H14  1  0.75000000  0.99445462  0.51316637  1
  H  H15  1  0.25000000  0.49445462  0.98683363  1
  H  H16  1  0.25000000  0.71883386  0.24959039  1
  H  H17  1  0.75000000  0.21883386  0.25040961  1
  H  H18  1  0.75000000  0.28116614  0.75040961  1
  H  H19  1  0.25000000  0.78116614  0.74959039  1
  H  H20  1  0.25000000  0.62396178  0.44509170  1
  H  H21  1  0.75000000  0.12396178  0.05490830  1
  H  H22  1  0.75000000  0.37603822  0.55490830  1
  H  H23  1  0.25000000  0.87603822  0.94509170  1
  H  H24  1  0.75000000  0.82853718  0.98872184  1
  H  H25  1  0.25000000  0.32853718  0.51127816  1
  H  H26  1  0.25000000  0.17146282  0.01127816  1
  H  H27  1  0.75000000  0.67146282  0.48872184  1
  H  H28  1  0.43932194  0.89706576  0.12706897  1
  H  H29  1  0.56067806  0.39706576  0.37293103  1
  H  H30  1  0.93932194  0.10293424  0.87293103  1
  H  H31  1  0.06067806  0.60293424  0.62706897  1
  H  H32  1  0.56067806  0.10293424  0.87293103  1
  H  H33  1  0.43932194  0.60293424  0.62706897  1
  H  H34  1  0.06067806  0.89706576  0.12706897  1
  H  H35  1  0.93932194  0.39706576  0.37293103  1
  He  He36  1  0.25000000  0.88835485  0.19021938  1
  He  He37  1  0.75000000  0.38835485  0.30978062  1
  He  He38  1  0.75000000  0.11164515  0.80978062  1
  He  He39  1  0.25000000  0.61164515  0.69021938  1
  He  He40  1  0.75000000  0.85390037  0.43871919  1
  He  He41  1  0.25000000  0.35390037  0.06128081  1
  He  He42  1  0.25000000  0.14609963  0.56128081  1
  He  He43  1  0.75000000  0.64609963  0.93871919  1
  Li  Li44  1  0.75000000  0.87734353  0.22023419  1
  Li  Li45  1  0.25000000  0.37734353  0.27976581  1
  Li  Li46  1  0.25000000  0.12265647  0.77976581  1
  Li  Li47  1  0.75000000  0.62265647  0.72023419  1
  Be  Be48  1  0.25000000  0.84646505  0.38285701  1
  Be  Be49  1  0.75000000  0.34646505  0.11714299  1
  Be  Be50  1  0.75000000  0.15353495  0.61714299  1
  Be  Be51  1  0.25000000  0.65353495  0.88285701  1
  Be  Be52  1  0.50000000  0.00000000  0.00000000  1
  Be  Be53  1  0.50000000  0.50000000  0.50000000  1
  Be  Be54  1  0.00000000  0.00000000  0.00000000  1
  Be  Be55  1  0.00000000  0.50000000  0.50000000  1
