# generated using pymatgen
data_H7He10
_symmetry_space_group_name_H-M   'P 1'
_cell_length_a   10.48056591
_cell_length_b   10.48056591
_cell_length_c   10.48056591
_cell_angle_alpha   89.79589424
_cell_angle_beta   89.79589424
_cell_angle_gamma   89.79589424
_symmetry_Int_Tables_number   1
_chemical_formula_structural   H7He10
_chemical_formula_sum   'H14 He20'
_cell_volume   1151.18720343
_cell_formula_units_Z   2
loop_
 _symmetry_equiv_pos_site_id
 _symmetry_equiv_pos_as_xyz
  1  'x, y, z'
loop_
 _atom_site_type_symbol
 _atom_site_label
 _atom_site_symmetry_multiplicity
 _atom_site_fract_x
 _atom_site_fract_y
 _atom_site_fract_z
 _atom_site_occupancy
  H  H0  1  0.57165379  0.57165379  0.57165379  1
  H  H1  1  0.42834621  0.42834621  0.42834621  1
  H  H2  1  0.16296311  0.74416188  0.34593104  1
  H  H3  1  0.74416188  0.34593104  0.16296311  1
  H  H4  1  0.34593104  0.16296311  0.74416188  1
  H  H5  1  0.25583812  0.83703689  0.65406896  1
  H  H6  1  0.65406896  0.25583812  0.83703689  1
  H  H7  1  0.83703689  0.65406896  0.25583812  1
  H  H8  1  0.88712820  0.84718840  0.57708592  1
  H  H9  1  0.84718840  0.57708592  0.88712820  1
  H  H10  1  0.57708592  0.88712820  0.84718840  1
  H  H11  1  0.15281160  0.11287180  0.42291408  1
  H  H12  1  0.42291408  0.15281160  0.11287180  1
  H  H13  1  0.11287180  0.42291408  0.15281160  1
  He  He14  1  0.82875304  0.82875304  0.82875304  1
  He  He15  1  0.17124696  0.17124696  0.17124696  1
  He  He16  1  0.17874431  0.00000000  0.82125569  1
  He  He17  1  0.00000000  0.82125569  0.17874431  1
  He  He18  1  0.82125569  0.17874431  0.00000000  1
  He  He19  1  0.08172940  0.50000000  0.91827060  1
  He  He20  1  0.50000000  0.91827060  0.08172940  1
  He  He21  1  0.91827060  0.08172940  0.50000000  1
  He  He22  1  0.69051267  0.75828572  0.43793717  1
  He  He23  1  0.75828572  0.43793717  0.69051267  1
  He  He24  1  0.43793717  0.69051267  0.75828572  1
  He  He25  1  0.24171428  0.30948733  0.56206283  1
  He  He26  1  0.56206283  0.24171428  0.30948733  1
  He  He27  1  0.30948733  0.56206283  0.24171428  1
  He  He28  1  0.07488877  0.67230910  0.57636898  1
  He  He29  1  0.67230910  0.57636898  0.07488877  1
  He  He30  1  0.57636898  0.07488877  0.67230910  1
  He  He31  1  0.32769090  0.92511123  0.42363102  1
  He  He32  1  0.42363102  0.32769090  0.92511123  1
  He  He33  1  0.92511123  0.42363102  0.32769090  1
