# generated using pymatgen
data_HHe6Li2
_symmetry_space_group_name_H-M   'P 1'
_cell_length_a   4.75850589
_cell_length_b   4.75850589
_cell_length_c   9.38758161
_cell_angle_alpha   90.00000000
_cell_angle_beta   90.00000000
_cell_angle_gamma   90.00000000
_symmetry_Int_Tables_number   1
_chemical_formula_structural   HHe6Li2
_chemical_formula_sum   'H2 He12 Li4'
_cell_volume   212.56656216
_cell_formula_units_Z   2
loop_
 _symmetry_equiv_pos_site_id
 _symmetry_equiv_pos_as_xyz
  1  'x, y, z'
loop_
 _atom_site_type_symbol
 _atom_site_label
 _atom_site_symmetry_multiplicity
 _atom_site_fract_x
 _atom_site_fract_y
 _atom_site_fract_z
 _atom_site_occupancy
  H  H0  1  0.00000000  0.00000000  0.00000000  1
  H  H1  1  0.50000000  0.50000000  0.50000000  1
  He  He2  1  0.30659585  0.30659585  -0.00000000  1
  He  He3  1  0.69340415  0.69340415  0.00000000  1
  He  He4  1  0.19340415  0.80659585  0.50000000  1
  He  He5  1  0.80659585  0.19340415  0.50000000  1
  He  He6  1  0.29549514  0.29549514  0.32102313  1
  He  He7  1  0.70450486  0.70450486  0.32102313  1
  He  He8  1  0.20450486  0.79549514  0.82102313  1
  He  He9  1  0.79549514  0.20450486  0.82102313  1
  He  He10  1  0.20450486  0.79549514  0.17897687  1
  He  He11  1  0.79549514  0.20450486  0.17897687  1
  He  He12  1  0.29549514  0.29549514  0.67897687  1
  He  He13  1  0.70450486  0.70450486  0.67897687  1
  Li  Li14  1  0.00000000  0.00000000  0.33165901  1
  Li  Li15  1  0.50000000  0.50000000  0.83165901  1
  Li  Li16  1  0.50000000  0.50000000  0.16834099  1
  Li  Li17  1  -0.00000000  -0.00000000  0.66834099  1
