# generated using pymatgen
data_H6He2Li13Be3
_symmetry_space_group_name_H-M   'P 1'
_cell_length_a   6.69262346
_cell_length_b   6.74911090
_cell_length_c   11.51017841
_cell_angle_alpha   90.70830398
_cell_angle_beta   94.27879735
_cell_angle_gamma   93.12353193
_symmetry_Int_Tables_number   1
_chemical_formula_structural   H6He2Li13Be3
_chemical_formula_sum   'H12 He4 Li26 Be6'
_cell_volume   517.61645280
_cell_formula_units_Z   2
loop_
 _symmetry_equiv_pos_site_id
 _symmetry_equiv_pos_as_xyz
  1  'x, y, z'
loop_
 _atom_site_type_symbol
 _atom_site_label
 _atom_site_symmetry_multiplicity
 _atom_site_fract_x
 _atom_site_fract_y
 _atom_site_fract_z
 _atom_site_occupancy
  H  H0  1  0.67745194  0.23746686  0.56037569  1
  H  H1  1  0.32254806  0.76253314  0.43962431  1
  H  H2  1  0.44836715  0.14662598  0.72379964  1
  H  H3  1  0.55163285  0.85337402  0.27620036  1
  H  H4  1  0.95929269  0.66297312  0.77266022  1
  H  H5  1  0.04070731  0.33702688  0.22733978  1
  H  H6  1  0.11990878  0.02084440  0.79808848  1
  H  H7  1  0.88009122  0.97915560  0.20191152  1
  H  H8  1  0.61771089  0.78020860  0.06617833  1
  H  H9  1  0.38228911  0.21979140  0.93382167  1
  H  H10  1  0.23349085  0.03192965  0.29752812  1
  H  H11  1  0.76650915  0.96807035  0.70247188  1
  He  He12  1  0.98641228  0.36047402  0.74595954  1
  He  He13  1  0.01358772  0.63952598  0.25404046  1
  He  He14  1  0.75220518  0.65801596  0.90569066  1
  He  He15  1  0.24779482  0.34198404  0.09430934  1
  Li  Li16  1  0.25790585  0.63660178  0.52089125  1
  Li  Li17  1  0.74209415  0.36339822  0.47910875  1
  Li  Li18  1  0.51232815  0.72869436  0.16439423  1
  Li  Li19  1  0.48767185  0.27130564  0.83560577  1
  Li  Li20  1  0.51311078  0.27615359  0.62581947  1
  Li  Li21  1  0.48688922  0.72384641  0.37418053  1
  Li  Li22  1  0.21581821  0.93528891  0.41612279  1
  Li  Li23  1  0.78418179  0.06471109  0.58387721  1
  Li  Li24  1  0.18901467  0.24555226  0.30799053  1
  Li  Li25  1  0.81098533  0.75444774  0.69200947  1
  Li  Li26  1  0.13249261  0.80161660  0.80512949  1
  Li  Li27  1  0.86750739  0.19838340  0.19487051  1
  Li  Li28  1  0.90982012  0.07563544  0.78669421  1
  Li  Li29  1  0.09017988  0.92436456  0.21330579  1
  Li  Li30  1  0.53926449  0.72369421  0.95913937  1
  Li  Li31  1  0.46073551  0.27630579  0.04086063  1
  Li  Li32  1  0.56111067  0.97199354  0.73236458  1
  Li  Li33  1  0.43888933  0.02800646  0.26763542  1
  Li  Li34  1  0.20022580  0.10597509  0.91646704  1
  Li  Li35  1  0.79977420  0.89402491  0.08353296  1
  Li  Li36  1  0.04034037  0.48634053  0.71561613  1
  Li  Li37  1  0.95965963  0.51365947  0.28438387  1
  Li  Li38  1  0.23329055  0.10206155  0.70461028  1
  Li  Li39  1  0.76670945  0.89793845  0.29538972  1
  Li  Li40  1  0.87258108  0.58723922  0.88215138  1
  Li  Li41  1  0.12741892  0.41276078  0.11784862  1
  Be  Be42  1  0.43103074  0.62517580  0.73442247  1
  Be  Be43  1  0.56896926  0.37482420  0.26557753  1
  Be  Be44  1  0.12640614  0.27319702  0.52167982  1
  Be  Be45  1  0.87359386  0.72680298  0.47832018  1
  Be  Be46  1  0.17970573  0.76251538  0.02847307  1
  Be  Be47  1  0.82029427  0.23748462  0.97152693  1
