# generated using pymatgen
data_HHe(LiBe2)2
_symmetry_space_group_name_H-M   'P 1'
_cell_length_a   5.08434615
_cell_length_b   7.29973475
_cell_length_c   10.23934557
_cell_angle_alpha   89.64234179
_cell_angle_beta   90.00000000
_cell_angle_gamma   90.00000000
_symmetry_Int_Tables_number   1
_chemical_formula_structural   HHe(LiBe2)2
_chemical_formula_sum   'H4 He4 Li8 Be16'
_cell_volume   380.01954026
_cell_formula_units_Z   4
loop_
 _symmetry_equiv_pos_site_id
 _symmetry_equiv_pos_as_xyz
  1  'x, y, z'
loop_
 _atom_site_type_symbol
 _atom_site_label
 _atom_site_symmetry_multiplicity
 _atom_site_fract_x
 _atom_site_fract_y
 _atom_site_fract_z
 _atom_site_occupancy
  H  H0  1  0.84351772  0.50068065  0.08716263  1
  H  H1  1  0.34351772  0.49931935  0.41283737  1
  H  H2  1  0.15648228  0.49931935  0.91283737  1
  H  H3  1  0.65648228  0.50068065  0.58716263  1
  He  He4  1  0.84443563  0.27996643  0.34005093  1
  He  He5  1  0.34443563  0.72003357  0.15994907  1
  He  He6  1  0.15556437  0.72003357  0.65994907  1
  He  He7  1  0.65556437  0.27996643  0.84005093  1
  Li  Li8  1  0.79204342  0.00104545  0.10921514  1
  Li  Li9  1  0.29204342  0.99895455  0.39078486  1
  Li  Li10  1  0.20795658  0.99895455  0.89078486  1
  Li  Li11  1  0.70795658  0.00104545  0.60921514  1
  Li  Li12  1  0.81783506  0.73865073  0.36198936  1
  Li  Li13  1  0.31783506  0.26134927  0.13801064  1
  Li  Li14  1  0.18216494  0.26134927  0.63801064  1
  Li  Li15  1  0.68216494  0.73865073  0.86198936  1
  Be  Be16  1  0.76201377  0.05161338  0.37742358  1
  Be  Be17  1  0.26201377  0.94838662  0.12257642  1
  Be  Be18  1  0.23798623  0.94838662  0.62257642  1
  Be  Be19  1  0.73798623  0.05161338  0.87742358  1
  Be  Be20  1  0.78201394  0.31532869  0.16940103  1
  Be  Be21  1  0.28201394  0.68467131  0.33059897  1
  Be  Be22  1  0.21798606  0.68467131  0.83059897  1
  Be  Be23  1  0.71798606  0.31532869  0.66940103  1
  Be  Be24  1  0.66832796  0.45464434  0.42610507  1
  Be  Be25  1  0.16832796  0.54535566  0.07389493  1
  Be  Be26  1  0.33167204  0.54535566  0.57389493  1
  Be  Be27  1  0.83167204  0.45464434  0.92610507  1
  Be  Be28  1  0.68713243  0.68674190  0.12615218  1
  Be  Be29  1  0.18713243  0.31325810  0.37384782  1
  Be  Be30  1  0.31286757  0.31325810  0.87384782  1
  Be  Be31  1  0.81286757  0.68674190  0.62615218  1
