# generated using pymatgen
data_HHeLi4Be
_symmetry_space_group_name_H-M   'P 1'
_cell_length_a   5.21960613
_cell_length_b   5.21964950
_cell_length_c   8.82759434
_cell_angle_alpha   90.00000000
_cell_angle_beta   90.00000000
_cell_angle_gamma   119.99990344
_symmetry_Int_Tables_number   1
_chemical_formula_structural   HHeLi4Be
_chemical_formula_sum   'H2 He2 Li8 Be2'
_cell_volume   208.28236278
_cell_formula_units_Z   2
loop_
 _symmetry_equiv_pos_site_id
 _symmetry_equiv_pos_as_xyz
  1  'x, y, z'
loop_
 _atom_site_type_symbol
 _atom_site_label
 _atom_site_symmetry_multiplicity
 _atom_site_fract_x
 _atom_site_fract_y
 _atom_site_fract_z
 _atom_site_occupancy
  H  H0  1  0.99999688  0.00000317  0.00639142  1
  H  H1  1  0.00000312  0.99999683  0.50639142  1
  He  He2  1  0.33333041  0.66665493  0.82362539  1
  He  He3  1  0.66666959  0.33334507  0.32362539  1
  Li  Li4  1  0.33331614  0.66668077  0.04445313  1
  Li  Li5  1  0.66668386  0.33331923  0.54445313  1
  Li  Li6  1  0.05915695  0.65832131  0.26830094  1
  Li  Li7  1  0.34168885  0.40084168  0.26828433  1
  Li  Li8  1  0.59916556  0.94085305  0.26829034  1
  Li  Li9  1  0.94084305  0.34167869  0.76830094  1
  Li  Li10  1  0.65831115  0.59915832  0.76828433  1
  Li  Li11  1  0.40083444  0.05914695  0.76829034  1
  Be  Be12  1  0.33332951  0.66667759  0.21345444  1
  Be  Be13  1  0.66667049  0.33332241  0.71345444  1
