# generated using pymatgen
data_HHe
_symmetry_space_group_name_H-M   'P 1'
_cell_length_a   4.27024572
_cell_length_b   4.56194774
_cell_length_c   11.97158253
_cell_angle_alpha   90.00000000
_cell_angle_beta   90.00000000
_cell_angle_gamma   90.00000000
_symmetry_Int_Tables_number   1
_chemical_formula_structural   HHe
_chemical_formula_sum   'H4 He4'
_cell_volume   233.21406329
_cell_formula_units_Z   4
loop_
 _symmetry_equiv_pos_site_id
 _symmetry_equiv_pos_as_xyz
  1  'x, y, z'
loop_
 _atom_site_type_symbol
 _atom_site_label
 _atom_site_symmetry_multiplicity
 _atom_site_fract_x
 _atom_site_fract_y
 _atom_site_fract_z
 _atom_site_occupancy
  H  H0  1  0.75000000  0.98481943  0.35536539  1
  H  H1  1  0.25000000  0.48481943  0.14463461  1
  H  H2  1  0.25000000  0.01518057  0.64463461  1
  H  H3  1  0.75000000  0.51518057  0.85536539  1
  He  He4  1  0.75000000  0.90066500  0.12405996  1
  He  He5  1  0.25000000  0.40066500  0.37594004  1
  He  He6  1  0.25000000  0.09933500  0.87594004  1
  He  He7  1  0.75000000  0.59933500  0.62405996  1
