# generated using pymatgen
data_H8He2Li13
_symmetry_space_group_name_H-M   'P 1'
_cell_length_a   13.98073666
_cell_length_b   12.34438164
_cell_length_c   4.21780255
_cell_angle_alpha   89.95399759
_cell_angle_beta   98.69085082
_cell_angle_gamma   92.14308165
_symmetry_Int_Tables_number   1
_chemical_formula_structural   H8He2Li13
_chemical_formula_sum   'H8 He2 Li13'
_cell_volume   719.05338545
_cell_formula_units_Z   1
loop_
 _symmetry_equiv_pos_site_id
 _symmetry_equiv_pos_as_xyz
  1  'x, y, z'
loop_
 _atom_site_type_symbol
 _atom_site_label
 _atom_site_symmetry_multiplicity
 _atom_site_fract_x
 _atom_site_fract_y
 _atom_site_fract_z
 _atom_site_occupancy
  H  H0  1  0.11736776  0.38112785  0.55911651  1
  H  H1  1  0.88263224  0.61887215  0.44088349  1
  H  H2  1  0.62264910  0.54643261  0.81078800  1
  H  H3  1  0.37735090  0.45356739  0.18921200  1
  H  H4  1  0.84935508  0.29524026  0.92529993  1
  H  H5  1  0.15064492  0.70475974  0.07470007  1
  H  H6  1  0.43636726  0.86900596  0.71894333  1
  H  H7  1  0.56363274  0.13099404  0.28105667  1
  He  He8  1  0.17311253  0.05082556  0.58677884  1
  He  He9  1  0.82688747  0.94917444  0.41322116  1
  Li  Li10  1  0.74122999  0.43002561  0.37074581  1
  Li  Li11  1  0.25877001  0.56997439  0.62925419  1
  Li  Li12  1  0.96258217  0.20051658  0.48229277  1
  Li  Li13  1  0.03741783  0.79948342  0.51770723  1
  Li  Li14  1  0.22034840  0.27372427  0.11088728  1
  Li  Li15  1  0.77965160  0.72627573  0.88911272  1
  Li  Li16  1  0.48978379  0.35757357  0.74547267  1
  Li  Li17  1  0.51021621  0.64242643  0.25452733  1
  Li  Li18  1  0.71882695  0.11719133  0.85936146  1
  Li  Li19  1  0.28117305  0.88280867  0.14063854  1
  Li  Li20  1  0.41823534  0.08919612  0.70892062  1
  Li  Li21  1  0.58176466  0.91080388  0.29107938  1
  Li  Li22  1  -0.00000000  0.50000000  0.00000000  1
