# generated using pymatgen
data_H2He
_symmetry_space_group_name_H-M   'P 1'
_cell_length_a   6.78916289
_cell_length_b   6.78916289
_cell_length_c   3.79438411
_cell_angle_alpha   90.00000000
_cell_angle_beta   90.00000000
_cell_angle_gamma   120.21493407
_symmetry_Int_Tables_number   1
_chemical_formula_structural   H2He
_chemical_formula_sum   'H6 He3'
_cell_volume   151.13313740
_cell_formula_units_Z   3
loop_
 _symmetry_equiv_pos_site_id
 _symmetry_equiv_pos_as_xyz
  1  'x, y, z'
loop_
 _atom_site_type_symbol
 _atom_site_label
 _atom_site_symmetry_multiplicity
 _atom_site_fract_x
 _atom_site_fract_y
 _atom_site_fract_z
 _atom_site_occupancy
  H  H0  1  0.26101685  -0.00204713  0.00000000  1
  H  H1  1  -0.00204713  0.26101685  0.00000000  1
  H  H2  1  0.74036636  0.74036636  0.00000000  1
  H  H3  1  0.60316266  -0.00337188  0.50000000  1
  H  H4  1  -0.00337188  0.60316266  0.50000000  1
  H  H5  1  0.39874243  0.39874243  0.50000000  1
  He  He6  1  0.33429465  0.66605789  0.00000000  1
  He  He7  1  0.66605789  0.33429465  0.00000000  1
  He  He8  1  0.00177818  0.00177818  0.50000000  1
