# generated using pymatgen
data_H4He2Li4BeB4
_symmetry_space_group_name_H-M   'P 1'
_cell_length_a   14.23186120
_cell_length_b   4.72470699
_cell_length_c   10.66491086
_cell_angle_alpha   81.43484868
_cell_angle_beta   90.00000000
_cell_angle_gamma   90.00000000
_symmetry_Int_Tables_number   1
_chemical_formula_structural   H4He2Li4BeB4
_chemical_formula_sum   'H8 He4 Li8 Be2 B8'
_cell_volume   709.12529270
_cell_formula_units_Z   2
loop_
 _symmetry_equiv_pos_site_id
 _symmetry_equiv_pos_as_xyz
  1  'x, y, z'
loop_
 _atom_site_type_symbol
 _atom_site_label
 _atom_site_symmetry_multiplicity
 _atom_site_fract_x
 _atom_site_fract_y
 _atom_site_fract_z
 _atom_site_occupancy
  H  H0  1  0.85196353  0.78700637  0.78933854  1
  H  H1  1  0.35196353  0.71299363  0.21066146  1
  H  H2  1  0.14803647  0.21299363  0.21066146  1
  H  H3  1  0.64803647  0.28700637  0.78933854  1
  H  H4  1  0.92341729  0.96804826  0.27792218  1
  H  H5  1  0.42341729  0.53195174  0.72207782  1
  H  H6  1  0.07658271  0.03195174  0.72207782  1
  H  H7  1  0.57658271  0.46804826  0.27792218  1
  He  He8  1  0.87731603  0.29437147  0.54209597  1
  He  He9  1  0.37731603  0.20562853  0.45790403  1
  He  He10  1  0.12268397  0.70562853  0.45790403  1
  He  He11  1  0.62268397  0.79437147  0.54209597  1
  Li  Li12  1  0.84438874  0.73673066  0.68419879  1
  Li  Li13  1  0.34438874  0.76326934  0.31580121  1
  Li  Li14  1  0.15561126  0.26326934  0.31580121  1
  Li  Li15  1  0.65561126  0.23673066  0.68419879  1
  Li  Li16  1  0.92917908  0.80522243  0.37374470  1
  Li  Li17  1  0.42917908  0.69477757  0.62625530  1
  Li  Li18  1  0.07082092  0.19477757  0.62625530  1
  Li  Li19  1  0.57082092  0.30522243  0.37374470  1
  Be  Be20  1  0.00000000  -0.00000000  -0.00000000  1
  Be  Be21  1  0.50000000  0.50000000  0.00000000  1
  B  B22  1  0.85003788  0.86496038  0.93492088  1
  B  B23  1  0.35003788  0.63503962  0.06507912  1
  B  B24  1  0.14996212  0.13503962  0.06507912  1
  B  B25  1  0.64996212  0.36496038  0.93492088  1
  B  B26  1  0.91162289  0.21076433  0.15098463  1
  B  B27  1  0.41162289  0.28923567  0.84901537  1
  B  B28  1  0.08837711  0.78923567  0.84901537  1
  B  B29  1  0.58837711  0.71076433  0.15098463  1
