# generated using pymatgen
data_H4He3
_symmetry_space_group_name_H-M   'P 1'
_cell_length_a   3.93918585
_cell_length_b   5.40558830
_cell_length_c   17.69607384
_cell_angle_alpha   90.00000000
_cell_angle_beta   90.00000000
_cell_angle_gamma   90.00000000
_symmetry_Int_Tables_number   1
_chemical_formula_structural   H4He3
_chemical_formula_sum   'H16 He12'
_cell_volume   376.81341754
_cell_formula_units_Z   4
loop_
 _symmetry_equiv_pos_site_id
 _symmetry_equiv_pos_as_xyz
  1  'x, y, z'
loop_
 _atom_site_type_symbol
 _atom_site_label
 _atom_site_symmetry_multiplicity
 _atom_site_fract_x
 _atom_site_fract_y
 _atom_site_fract_z
 _atom_site_occupancy
  H  H0  1  0.75000000  0.70347578  0.33127914  1
  H  H1  1  0.25000000  0.20347578  0.16872086  1
  H  H2  1  0.25000000  0.29652422  0.66872086  1
  H  H3  1  0.75000000  0.79652422  0.83127914  1
  H  H4  1  0.75000000  0.04211886  0.05658004  1
  H  H5  1  0.25000000  0.54211886  0.44341996  1
  H  H6  1  0.25000000  0.95788114  0.94341996  1
  H  H7  1  0.75000000  0.45788114  0.55658004  1
  H  H8  1  0.75000000  0.97023755  0.59783068  1
  H  H9  1  0.25000000  0.47023755  0.90216932  1
  H  H10  1  0.25000000  0.02976245  0.40216932  1
  H  H11  1  0.75000000  0.52976245  0.09783068  1
  H  H12  1  0.75000000  0.31746137  0.79023573  1
  H  H13  1  0.25000000  0.81746137  0.70976427  1
  H  H14  1  0.25000000  0.68253863  0.20976427  1
  H  H15  1  0.75000000  0.18253863  0.29023573  1
  He  He16  1  0.75000000  0.82800199  0.46585332  1
  He  He17  1  0.25000000  0.32800199  0.03414668  1
  He  He18  1  0.25000000  0.17199801  0.53414668  1
  He  He19  1  0.75000000  0.67199801  0.96585332  1
  He  He20  1  0.75000000  0.20178172  0.92115908  1
  He  He21  1  0.25000000  0.70178172  0.57884092  1
  He  He22  1  0.25000000  0.79821828  0.07884092  1
  He  He23  1  0.75000000  0.29821828  0.42115908  1
  He  He24  1  0.75000000  0.58607487  0.69015257  1
  He  He25  1  0.25000000  0.08607487  0.80984743  1
  He  He26  1  0.25000000  0.41392513  0.30984743  1
  He  He27  1  0.75000000  0.91392513  0.19015257  1
