# generated using pymatgen
data_HHe2Li(BeB)2
_symmetry_space_group_name_H-M   'P 1'
_cell_length_a   7.57138921
_cell_length_b   7.57138921
_cell_length_c   18.45804997
_cell_angle_alpha   71.24093617
_cell_angle_beta   71.24093617
_cell_angle_gamma   48.00081670
_symmetry_Int_Tables_number   1
_chemical_formula_structural   HHe2Li(BeB)2
_chemical_formula_sum   'H4 He8 Li4 Be8 B8'
_cell_volume   736.01656112
_cell_formula_units_Z   4
loop_
 _symmetry_equiv_pos_site_id
 _symmetry_equiv_pos_as_xyz
  1  'x, y, z'
loop_
 _atom_site_type_symbol
 _atom_site_label
 _atom_site_symmetry_multiplicity
 _atom_site_fract_x
 _atom_site_fract_y
 _atom_site_fract_z
 _atom_site_occupancy
  H  H0  1  0.83136767  0.16863233  0.25000000  1
  H  H1  1  0.16863233  0.83136767  0.75000000  1
  H  H2  1  0.33776588  0.66223412  0.25000000  1
  H  H3  1  0.66223412  0.33776588  0.75000000  1
  He  He4  1  0.72185615  0.83353084  0.36557316  1
  He  He5  1  0.16646916  0.27814385  0.13442684  1
  He  He6  1  0.27814385  0.16646916  0.63442684  1
  He  He7  1  0.83353084  0.72185615  0.86557316  1
  He  He8  1  0.55391029  0.42633211  0.40961178  1
  He  He9  1  0.57366789  0.44608971  0.09038822  1
  He  He10  1  0.44608971  0.57366789  0.59038822  1
  He  He11  1  0.42633211  0.55391029  0.90961178  1
  Li  Li12  1  0.13664788  0.18946469  0.45400107  1
  Li  Li13  1  0.81053531  0.86335212  0.04599893  1
  Li  Li14  1  0.86335212  0.81053531  0.54599893  1
  Li  Li15  1  0.18946469  0.13664788  0.95400107  1
  Be  Be16  1  0.77765494  0.70906592  0.42581476  1
  Be  Be17  1  0.29093408  0.22234506  0.07418524  1
  Be  Be18  1  0.22234506  0.29093408  0.57418524  1
  Be  Be19  1  0.70906592  0.77765494  0.92581476  1
  Be  Be20  1  0.72726361  0.24625425  0.43537464  1
  Be  Be21  1  0.75374575  0.27273639  0.06462536  1
  Be  Be22  1  0.27273639  0.75374575  0.56462536  1
  Be  Be23  1  0.24625425  0.72726361  0.93537464  1
  B  B24  1  0.62928227  0.01023065  0.28266282  1
  B  B25  1  0.98976935  0.37071773  0.21733718  1
  B  B26  1  0.37071773  0.98976935  0.71733718  1
  B  B27  1  0.01023065  0.62928227  0.78266282  1
  B  B28  1  0.30533977  0.68442113  0.37844717  1
  B  B29  1  0.31557887  0.69466023  0.12155283  1
  B  B30  1  0.69466023  0.31557887  0.62155283  1
  B  B31  1  0.68442113  0.30533977  0.87844717  1
