# generated using pymatgen
data_HHeLi
_symmetry_space_group_name_H-M   'P 1'
_cell_length_a   4.35839428
_cell_length_b   7.19646869
_cell_length_c   7.54580692
_cell_angle_alpha   90.00000000
_cell_angle_beta   90.00000000
_cell_angle_gamma   90.00000000
_symmetry_Int_Tables_number   1
_chemical_formula_structural   HHeLi
_chemical_formula_sum   'H4 He4 Li4'
_cell_volume   236.67459632
_cell_formula_units_Z   4
loop_
 _symmetry_equiv_pos_site_id
 _symmetry_equiv_pos_as_xyz
  1  'x, y, z'
loop_
 _atom_site_type_symbol
 _atom_site_label
 _atom_site_symmetry_multiplicity
 _atom_site_fract_x
 _atom_site_fract_y
 _atom_site_fract_z
 _atom_site_occupancy
  H  H0  1  0.25000000  0.78993548  0.42015001  1
  H  H1  1  0.75000000  0.71006452  0.92015001  1
  H  H2  1  0.75000000  0.21006452  0.57984999  1
  H  H3  1  0.25000000  0.28993548  0.07984999  1
  He  He4  1  0.25000000  0.23157656  0.41443993  1
  He  He5  1  0.75000000  0.26842344  0.91443993  1
  He  He6  1  0.75000000  0.76842344  0.58556007  1
  He  He7  1  0.25000000  0.73157656  0.08556007  1
  Li  Li8  1  0.25000000  0.00398534  0.76709624  1
  Li  Li9  1  0.75000000  0.49601466  0.26709624  1
  Li  Li10  1  0.75000000  0.99601466  0.23290376  1
  Li  Li11  1  0.25000000  0.50398534  0.73290376  1
