# generated using pymatgen
data_H8He4Li
_symmetry_space_group_name_H-M   'P 1'
_cell_length_a   6.98302556
_cell_length_b   6.98302556
_cell_length_c   6.98302556
_cell_angle_alpha   99.15678683
_cell_angle_beta   99.15678683
_cell_angle_gamma   132.97872405
_symmetry_Int_Tables_number   1
_chemical_formula_structural   H8He4Li
_chemical_formula_sum   'H8 He4 Li1'
_cell_volume   228.43960744
_cell_formula_units_Z   1
loop_
 _symmetry_equiv_pos_site_id
 _symmetry_equiv_pos_as_xyz
  1  'x, y, z'
loop_
 _atom_site_type_symbol
 _atom_site_label
 _atom_site_symmetry_multiplicity
 _atom_site_fract_x
 _atom_site_fract_y
 _atom_site_fract_z
 _atom_site_occupancy
  H  H0  1  0.65185984  -0.00000000  0.65185984  1
  H  H1  1  0.34814016  0.00000000  0.34814016  1
  H  H2  1  -0.00000000  0.65185984  0.65185984  1
  H  H3  1  0.00000000  0.34814016  0.34814016  1
  H  H4  1  0.72236916  0.50000000  0.22236916  1
  H  H5  1  0.27763084  0.50000000  0.77763084  1
  H  H6  1  0.50000000  0.72236916  0.22236916  1
  H  H7  1  0.50000000  0.27763084  0.77763084  1
  He  He8  1  0.50000000  0.50000000  0.50000000  1
  He  He9  1  0.00000000  0.00000000  0.50000000  1
  He  He10  1  -0.00000000  0.50000000  0.00000000  1
  He  He11  1  0.50000000  0.00000000  0.00000000  1
  Li  Li12  1  -0.00000000  0.00000000  0.00000000  1
