# generated using pymatgen
data_HHe(LiBe3)2
_symmetry_space_group_name_H-M   'P 1'
_cell_length_a   6.94845731
_cell_length_b   6.94845731
_cell_length_c   5.44639113
_cell_angle_alpha   76.77842635
_cell_angle_beta   76.77842635
_cell_angle_gamma   82.79557303
_symmetry_Int_Tables_number   1
_chemical_formula_structural   HHe(LiBe3)2
_chemical_formula_sum   'H2 He2 Li4 Be12'
_cell_volume   248.45936207
_cell_formula_units_Z   2
loop_
 _symmetry_equiv_pos_site_id
 _symmetry_equiv_pos_as_xyz
  1  'x, y, z'
loop_
 _atom_site_type_symbol
 _atom_site_label
 _atom_site_symmetry_multiplicity
 _atom_site_fract_x
 _atom_site_fract_y
 _atom_site_fract_z
 _atom_site_occupancy
  H  H0  1  0.30207520  0.69792480  0.75000000  1
  H  H1  1  0.69792480  0.30207520  0.25000000  1
  He  He2  1  0.90404134  0.09595866  0.75000000  1
  He  He3  1  0.09595866  0.90404134  0.25000000  1
  Li  Li4  1  0.38096056  0.18319597  0.78921245  1
  Li  Li5  1  0.81680403  0.61903944  0.71078755  1
  Li  Li6  1  0.61903944  0.81680403  0.21078755  1
  Li  Li7  1  0.18319597  0.38096056  0.28921245  1
  Be  Be8  1  0.19977372  0.00954172  0.88257989  1
  Be  Be9  1  0.99045828  0.80022628  0.61742011  1
  Be  Be10  1  0.80022628  0.99045828  0.11742011  1
  Be  Be11  1  0.00954172  0.19977372  0.38257989  1
  Be  Be12  1  0.62078502  0.09720403  0.66148683  1
  Be  Be13  1  0.90279597  0.37921498  0.83851317  1
  Be  Be14  1  0.37921498  0.90279597  0.33851317  1
  Be  Be15  1  0.09720403  0.62078502  0.16148683  1
  Be  Be16  1  0.38641087  0.33004862  0.02262766  1
  Be  Be17  1  0.66995138  0.61358913  0.47737234  1
  Be  Be18  1  0.61358913  0.66995138  0.97737234  1
  Be  Be19  1  0.33004862  0.38641087  0.52262766  1
