# generated using pymatgen
data_H2He5Li
_symmetry_space_group_name_H-M   'P 1'
_cell_length_a   5.61173982
_cell_length_b   7.87155761
_cell_length_c   7.97850345
_cell_angle_alpha   90.00000000
_cell_angle_beta   90.00000000
_cell_angle_gamma   90.00000000
_symmetry_Int_Tables_number   1
_chemical_formula_structural   H2He5Li
_chemical_formula_sum   'H8 He20 Li4'
_cell_volume   352.43549615
_cell_formula_units_Z   4
loop_
 _symmetry_equiv_pos_site_id
 _symmetry_equiv_pos_as_xyz
  1  'x, y, z'
loop_
 _atom_site_type_symbol
 _atom_site_label
 _atom_site_symmetry_multiplicity
 _atom_site_fract_x
 _atom_site_fract_y
 _atom_site_fract_z
 _atom_site_occupancy
  H  H0  1  0.75821789  0.00000000  0.00000000  1
  H  H1  1  0.74178211  0.50000000  0.50000000  1
  H  H2  1  0.24178211  -0.00000000  -0.00000000  1
  H  H3  1  0.25821789  0.50000000  0.50000000  1
  H  H4  1  0.50000000  0.37048171  0.86091628  1
  H  H5  1  0.50000000  0.62951829  0.13908372  1
  H  H6  1  0.00000000  0.12951829  0.36091628  1
  H  H7  1  0.00000000  0.87048171  0.63908372  1
  He  He8  1  0.00000000  0.42389852  0.63628333  1
  He  He9  1  0.00000000  0.57610148  0.36371667  1
  He  He10  1  0.50000000  0.07610148  0.13628333  1
  He  He11  1  0.50000000  0.92389852  0.86371667  1
  He  He12  1  0.00000000  0.10244307  0.59930488  1
  He  He13  1  0.00000000  0.89755693  0.40069512  1
  He  He14  1  0.50000000  0.39755693  0.09930488  1
  He  He15  1  0.50000000  0.60244307  0.90069512  1
  He  He16  1  0.50000000  0.42416228  0.63723952  1
  He  He17  1  0.50000000  0.57583772  0.36276048  1
  He  He18  1  0.00000000  0.07583772  0.13723952  1
  He  He19  1  0.00000000  0.92416228  0.86276048  1
  He  He20  1  0.76032330  0.23072559  0.86580064  1
  He  He21  1  0.76032330  0.76927441  0.13419936  1
  He  He22  1  0.73967670  0.26927441  0.36580064  1
  He  He23  1  0.73967670  0.73072559  0.63419936  1
  He  He24  1  0.23967670  0.76927441  0.13419936  1
  He  He25  1  0.23967670  0.23072559  0.86580064  1
  He  He26  1  0.26032330  0.73072559  0.63419936  1
  He  He27  1  0.26032330  0.26927441  0.36580064  1
  Li  Li28  1  0.00000000  0.24556601  0.74773667  1
  Li  Li29  1  0.00000000  0.75443399  0.25226333  1
  Li  Li30  1  0.50000000  0.25443399  0.24773667  1
  Li  Li31  1  0.50000000  0.74556601  0.75226333  1
