# generated using pymatgen
data_H3He
_symmetry_space_group_name_H-M   'P 1'
_cell_length_a   3.15631406
_cell_length_b   5.16259090
_cell_length_c   15.48620483
_cell_angle_alpha   90.00000000
_cell_angle_beta   90.00000000
_cell_angle_gamma   90.00000000
_symmetry_Int_Tables_number   1
_chemical_formula_structural   H3He
_chemical_formula_sum   'H12 He4'
_cell_volume   252.34396387
_cell_formula_units_Z   4
loop_
 _symmetry_equiv_pos_site_id
 _symmetry_equiv_pos_as_xyz
  1  'x, y, z'
loop_
 _atom_site_type_symbol
 _atom_site_label
 _atom_site_symmetry_multiplicity
 _atom_site_fract_x
 _atom_site_fract_y
 _atom_site_fract_z
 _atom_site_occupancy
  H  H0  1  0.75000000  0.64620593  0.01273212  1
  H  H1  1  0.25000000  0.14620593  0.48726788  1
  H  H2  1  0.25000000  0.35379407  0.98726788  1
  H  H3  1  0.75000000  0.85379407  0.51273212  1
  H  H4  1  0.75000000  0.68022386  0.38197200  1
  H  H5  1  0.25000000  0.18022386  0.11802800  1
  H  H6  1  0.25000000  0.31977614  0.61802800  1
  H  H7  1  0.75000000  0.81977614  0.88197200  1
  H  H8  1  0.75000000  0.02232928  0.29334762  1
  H  H9  1  0.25000000  0.52232928  0.20665238  1
  H  H10  1  0.25000000  0.97767072  0.70665238  1
  H  H11  1  0.75000000  0.47767072  0.79334762  1
  He  He12  1  0.75000000  0.85006316  0.15009245  1
  He  He13  1  0.25000000  0.35006316  0.34990755  1
  He  He14  1  0.25000000  0.14993684  0.84990755  1
  He  He15  1  0.75000000  0.64993684  0.65009245  1
