# generated using pymatgen
data_HHe(Li3Be)2
_symmetry_space_group_name_H-M   'P 1'
_cell_length_a   5.70040314
_cell_length_b   5.70040314
_cell_length_c   5.70040314
_cell_angle_alpha   121.47428589
_cell_angle_beta   121.47428589
_cell_angle_gamma   87.46488309
_symmetry_Int_Tables_number   1
_chemical_formula_structural   HHe(Li3Be)2
_chemical_formula_sum   'H1 He1 Li6 Be2'
_cell_volume   127.92421829
_cell_formula_units_Z   1
loop_
 _symmetry_equiv_pos_site_id
 _symmetry_equiv_pos_as_xyz
  1  'x, y, z'
loop_
 _atom_site_type_symbol
 _atom_site_label
 _atom_site_symmetry_multiplicity
 _atom_site_fract_x
 _atom_site_fract_y
 _atom_site_fract_z
 _atom_site_occupancy
  H  H0  1  0.00000000  0.00000000  0.00000000  1
  He  He1  1  0.50000000  0.50000000  -0.00000000  1
  Li  Li2  1  0.21255333  0.69740684  0.90996017  1
  Li  Li3  1  0.78744667  0.30259316  0.09003983  1
  Li  Li4  1  0.30259316  0.21255333  0.51514649  1
  Li  Li5  1  0.69740684  0.78744667  0.48485351  1
  Li  Li6  1  0.73638664  0.73638664  0.00000000  1
  Li  Li7  1  0.26361336  0.26361336  -0.00000000  1
  Be  Be8  1  0.25000000  0.75000000  0.50000000  1
  Be  Be9  1  0.75000000  0.25000000  0.50000000  1
