# generated using pymatgen
data_H2HeLiBe2
_symmetry_space_group_name_H-M   'P 1'
_cell_length_a   5.64942159
_cell_length_b   5.64942159
_cell_length_c   5.64942159
_cell_angle_alpha   143.10507683
_cell_angle_beta   143.10507683
_cell_angle_gamma   53.16764235
_symmetry_Int_Tables_number   1
_chemical_formula_structural   H2HeLiBe2
_chemical_formula_sum   'H2 He1 Li1 Be2'
_cell_volume   64.58246801
_cell_formula_units_Z   1
loop_
 _symmetry_equiv_pos_site_id
 _symmetry_equiv_pos_as_xyz
  1  'x, y, z'
loop_
 _atom_site_type_symbol
 _atom_site_label
 _atom_site_symmetry_multiplicity
 _atom_site_fract_x
 _atom_site_fract_y
 _atom_site_fract_z
 _atom_site_occupancy
  H  H0  1  0.85185071  0.85185071  0.00000000  1
  H  H1  1  0.14814929  0.14814929  -0.00000000  1
  He  He2  1  -0.00000000  -0.00000000  -0.00000000  1
  Li  Li3  1  0.50000000  0.50000000  0.00000000  1
  Be  Be4  1  0.75000000  0.25000000  0.50000000  1
  Be  Be5  1  0.25000000  0.75000000  0.50000000  1
