# generated using pymatgen
data_H3HeLi2
_symmetry_space_group_name_H-M   'P 1'
_cell_length_a   3.35432828
_cell_length_b   6.02248606
_cell_length_c   14.45841219
_cell_angle_alpha   90.00000000
_cell_angle_beta   90.00000000
_cell_angle_gamma   90.00000000
_symmetry_Int_Tables_number   1
_chemical_formula_structural   H3HeLi2
_chemical_formula_sum   'H12 He4 Li8'
_cell_volume   292.08010034
_cell_formula_units_Z   4
loop_
 _symmetry_equiv_pos_site_id
 _symmetry_equiv_pos_as_xyz
  1  'x, y, z'
loop_
 _atom_site_type_symbol
 _atom_site_label
 _atom_site_symmetry_multiplicity
 _atom_site_fract_x
 _atom_site_fract_y
 _atom_site_fract_z
 _atom_site_occupancy
  H  H0  1  0.00000000  0.67700194  0.08599707  1
  H  H1  1  0.00000000  0.32299806  0.91400293  1
  H  H2  1  0.00000000  0.17700194  0.41400293  1
  H  H3  1  0.00000000  0.82299806  0.58599707  1
  H  H4  1  0.50000000  0.61168944  0.28275501  1
  H  H5  1  0.50000000  0.38831056  0.71724499  1
  H  H6  1  0.50000000  0.11168944  0.21724499  1
  H  H7  1  0.50000000  0.88831056  0.78275501  1
  H  H8  1  0.50000000  0.64861143  0.38176381  1
  H  H9  1  0.50000000  0.35138857  0.61823619  1
  H  H10  1  0.50000000  0.14861143  0.11823619  1
  H  H11  1  0.50000000  0.85138857  0.88176381  1
  He  He12  1  0.50000000  0.79744607  0.15520917  1
  He  He13  1  0.50000000  0.20255393  0.84479083  1
  He  He14  1  0.50000000  0.29744607  0.34479083  1
  He  He15  1  0.50000000  0.70255393  0.65520917  1
  Li  Li16  1  0.00000000  0.88750559  0.31430809  1
  Li  Li17  1  0.00000000  0.11249441  0.68569191  1
  Li  Li18  1  0.00000000  0.38750559  0.18569191  1
  Li  Li19  1  0.00000000  0.61249441  0.81430809  1
  Li  Li20  1  0.00000000  0.00000000  0.00000000  1
  Li  Li21  1  0.00000000  0.50000000  0.50000000  1
  Li  Li22  1  0.50000000  0.50000000  0.00000000  1
  Li  Li23  1  0.50000000  0.00000000  0.50000000  1
