# generated using pymatgen
data_H3He(Li4Be)2
_symmetry_space_group_name_H-M   'P 1'
_cell_length_a   8.99639168
_cell_length_b   8.99639168
_cell_length_c   10.97052772
_cell_angle_alpha   83.03319688
_cell_angle_beta   83.03319688
_cell_angle_gamma   52.49273105
_symmetry_Int_Tables_number   1
_chemical_formula_structural   H3He(Li4Be)2
_chemical_formula_sum   'H6 He2 Li16 Be4'
_cell_volume   697.87945627
_cell_formula_units_Z   2
loop_
 _symmetry_equiv_pos_site_id
 _symmetry_equiv_pos_as_xyz
  1  'x, y, z'
loop_
 _atom_site_type_symbol
 _atom_site_label
 _atom_site_symmetry_multiplicity
 _atom_site_fract_x
 _atom_site_fract_y
 _atom_site_fract_z
 _atom_site_occupancy
  H  H0  1  0.32057403  0.07640023  0.31838769  1
  H  H1  1  0.92359977  0.67942597  0.18161231  1
  H  H2  1  0.67942597  0.92359977  0.68161231  1
  H  H3  1  0.07640023  0.32057403  0.81838769  1
  H  H4  1  0.59539930  0.40460070  0.25000000  1
  H  H5  1  0.40460070  0.59539930  0.75000000  1
  He  He6  1  0.98896364  0.01103636  0.75000000  1
  He  He7  1  0.01103636  0.98896364  0.25000000  1
  Li  Li8  1  0.40242909  0.88941389  0.85160481  1
  Li  Li9  1  0.11058611  0.59757091  0.64839519  1
  Li  Li10  1  0.59757091  0.11058611  0.14839519  1
  Li  Li11  1  0.88941389  0.40242909  0.35160481  1
  Li  Li12  1  0.84992724  0.71304211  0.91470762  1
  Li  Li13  1  0.28695789  0.15007276  0.58529238  1
  Li  Li14  1  0.15007276  0.28695789  0.08529238  1
  Li  Li15  1  0.71304211  0.84992724  0.41470762  1
  Li  Li16  1  0.71999763  0.41788004  0.95445257  1
  Li  Li17  1  0.58211996  0.28000237  0.54554743  1
  Li  Li18  1  0.28000237  0.58211996  0.04554743  1
  Li  Li19  1  0.41788004  0.71999763  0.45445257  1
  Li  Li20  1  0.55024580  0.74900252  0.15933420  1
  Li  Li21  1  0.25099748  0.44975420  0.34066580  1
  Li  Li22  1  0.44975420  0.25099748  0.84066580  1
  Li  Li23  1  0.74900252  0.55024580  0.65933420  1
  Be  Be24  1  0.62294773  0.69752769  0.96943256  1
  Be  Be25  1  0.30247231  0.37705227  0.53056744  1
  Be  Be26  1  0.37705227  0.30247231  0.03056744  1
  Be  Be27  1  0.69752769  0.62294773  0.46943256  1
