# generated using pymatgen
data_H2He2Li
_symmetry_space_group_name_H-M   'P 1'
_cell_length_a   4.42817727
_cell_length_b   4.42817727
_cell_length_c   7.40489237
_cell_angle_alpha   90.00029069
_cell_angle_beta   89.99970931
_cell_angle_gamma   120.00127717
_symmetry_Int_Tables_number   1
_chemical_formula_structural   H2He2Li
_chemical_formula_sum   'H2 He2 Li1'
_cell_volume   125.74588740
_cell_formula_units_Z   1
loop_
 _symmetry_equiv_pos_site_id
 _symmetry_equiv_pos_as_xyz
  1  'x, y, z'
loop_
 _atom_site_type_symbol
 _atom_site_label
 _atom_site_symmetry_multiplicity
 _atom_site_fract_x
 _atom_site_fract_y
 _atom_site_fract_z
 _atom_site_occupancy
  H  H0  1  0.33333754  0.66666246  0.26100451  1
  H  H1  1  0.66666246  0.33333754  0.73899549  1
  He  He2  1  0.33334589  0.66665411  0.62880187  1
  He  He3  1  0.66665411  0.33334589  0.37119813  1
  Li  Li4  1  -0.00000000  0.00000000  -0.00000000  1
