# generated using pymatgen
data_H6He5LiBe
_symmetry_space_group_name_H-M   'P 1'
_cell_length_a   7.80409413
_cell_length_b   6.34787632
_cell_length_c   6.21755582
_cell_angle_alpha   71.63020324
_cell_angle_beta   65.93031459
_cell_angle_gamma   74.84818470
_symmetry_Int_Tables_number   1
_chemical_formula_structural   H6He5LiBe
_chemical_formula_sum   'H12 He10 Li2 Be2'
_cell_volume   263.74618929
_cell_formula_units_Z   2
loop_
 _symmetry_equiv_pos_site_id
 _symmetry_equiv_pos_as_xyz
  1  'x, y, z'
loop_
 _atom_site_type_symbol
 _atom_site_label
 _atom_site_symmetry_multiplicity
 _atom_site_fract_x
 _atom_site_fract_y
 _atom_site_fract_z
 _atom_site_occupancy
  H  H0  1  0.18372421  0.94948803  0.00943157  1
  H  H1  1  0.81627579  0.05051197  0.99056843  1
  H  H2  1  0.04969074  0.60733025  0.08943596  1
  H  H3  1  0.95030926  0.39266975  0.91056404  1
  H  H4  1  0.42268370  0.19453466  0.69960072  1
  H  H5  1  0.57731630  0.80546534  0.30039928  1
  H  H6  1  0.47416008  0.81349809  0.72691297  1
  H  H7  1  0.52583992  0.18650191  0.27308703  1
  H  H8  1  0.72419607  0.97768402  0.44331194  1
  H  H9  1  0.27580393  0.02231598  0.55668806  1
  H  H10  1  0.93216958  0.04641386  0.25693109  1
  H  H11  1  0.06783042  0.95358614  0.74306891  1
  He  He12  1  0.15784591  0.98042527  0.16608763  1
  He  He13  1  0.84215409  0.01957473  0.83391237  1
  He  He14  1  0.06970082  0.48676941  0.22360456  1
  He  He15  1  0.93029918  0.51323059  0.77639544  1
  He  He16  1  0.40605254  0.32666060  0.75878505  1
  He  He17  1  0.59394746  0.67333940  0.24121495  1
  He  He18  1  0.61264586  0.78502722  0.67316604  1
  He  He19  1  0.38735414  0.21497278  0.32683396  1
  He  He20  1  0.78829278  0.10224454  0.30847248  1
  He  He21  1  0.21170722  0.89775546  0.69152752  1
  Li  Li22  1  0.75269948  0.40218770  0.55614649  1
  Li  Li23  1  0.24730052  0.59781230  0.44385351  1
  Be  Be24  1  0.26609861  0.24663959  0.10071820  1
  Be  Be25  1  0.73390139  0.75336041  0.89928180  1
