# generated using pymatgen
data_H4HeLi3
_symmetry_space_group_name_H-M   'P 1'
_cell_length_a   8.79285722
_cell_length_b   8.79304297
_cell_length_c   5.22321497
_cell_angle_alpha   90.00000000
_cell_angle_beta   90.00000000
_cell_angle_gamma   120.00059481
_symmetry_Int_Tables_number   1
_chemical_formula_structural   H4HeLi3
_chemical_formula_sum   'H8 He2 Li6'
_cell_volume   349.73181773
_cell_formula_units_Z   2
loop_
 _symmetry_equiv_pos_site_id
 _symmetry_equiv_pos_as_xyz
  1  'x, y, z'
loop_
 _atom_site_type_symbol
 _atom_site_label
 _atom_site_symmetry_multiplicity
 _atom_site_fract_x
 _atom_site_fract_y
 _atom_site_fract_z
 _atom_site_occupancy
  H  H0  1  0.53919164  0.14239060  0.41995213  1
  H  H1  1  0.85761466  0.39679821  0.41995151  1
  H  H2  1  0.60320206  0.46080771  0.41996404  1
  H  H3  1  0.46080836  0.85760940  0.91995213  1
  H  H4  1  0.14238534  0.60320179  0.91995151  1
  H  H5  1  0.39679794  0.53919229  0.91996404  1
  H  H6  1  0.66667475  0.33332516  0.81632465  1
  H  H7  1  0.33332525  0.66667484  0.31632465  1
  He  He8  1  0.66666862  0.33333232  0.51408778  1
  He  He9  1  0.33333138  0.66666768  0.01408778  1
  Li  Li10  1  0.36740802  0.08897804  0.00380739  1
  Li  Li11  1  0.91102143  0.27843465  0.00380872  1
  Li  Li12  1  0.72157099  0.63259105  0.00380379  1
  Li  Li13  1  0.63259198  0.91102196  0.50380739  1
  Li  Li14  1  0.08897857  0.72156535  0.50380872  1
  Li  Li15  1  0.27842901  0.36740895  0.50380379  1
