# generated using pymatgen
data_HHe4Li4
_symmetry_space_group_name_H-M   'P 1'
_cell_length_a   10.71888283
_cell_length_b   10.71994695
_cell_length_c   11.39726473
_cell_angle_alpha   23.22500467
_cell_angle_beta   85.94515000
_cell_angle_gamma   84.36651587
_symmetry_Int_Tables_number   1
_chemical_formula_structural   HHe4Li4
_chemical_formula_sum   'H2 He8 Li8'
_cell_volume   513.30747175
_cell_formula_units_Z   2
loop_
 _symmetry_equiv_pos_site_id
 _symmetry_equiv_pos_as_xyz
  1  'x, y, z'
loop_
 _atom_site_type_symbol
 _atom_site_label
 _atom_site_symmetry_multiplicity
 _atom_site_fract_x
 _atom_site_fract_y
 _atom_site_fract_z
 _atom_site_occupancy
  H  H0  1  0.36626234  0.49031214  0.84732561  1
  H  H1  1  0.66326149  0.48401758  0.15056076  1
  He  He2  1  -0.04567203  0.06718033  0.54774814  1
  He  He3  1  0.38533774  0.59346478  0.45240656  1
  He  He4  1  0.00880380  0.49085010  0.50049889  1
  He  He5  1  0.67612926  0.82302526  0.50108968  1
  He  He6  1  0.22239350  0.77820909  0.00024558  1
  He  He7  1  0.73066264  0.93771802  -0.04921066  1
  He  He8  1  0.11143615  0.21953222  0.04963749  1
  He  He9  1  0.42941192  0.06949394  0.50035295  1
  Li  Li10  1  0.19759942  0.04722813  0.97891958  1
  Li  Li11  1  0.97394662  0.78454347  0.01882384  1
  Li  Li12  1  0.29487775  0.67690478  0.62410909  1
  Li  Li13  1  0.69889743  0.32826980  0.37597838  1
  Li  Li14  1  0.47994216  0.38545539  0.89467505  1
  Li  Li15  1  0.71912415  0.41426142  0.10521501  1
  Li  Li16  1  0.32486962  0.40665421  0.02326999  1
  Li  Li17  1  0.56960604  0.69598935  -0.02164594  1
