# generated using pymatgen
data_H6He6Li
_symmetry_space_group_name_H-M   'P 1'
_cell_length_a   5.23435375
_cell_length_b   5.23248925
_cell_length_c   8.53818397
_cell_angle_alpha   90.00000000
_cell_angle_beta   90.00000000
_cell_angle_gamma   120.01178805
_symmetry_Int_Tables_number   1
_chemical_formula_structural   H6He6Li
_chemical_formula_sum   'H6 He6 Li1'
_cell_volume   202.49576977
_cell_formula_units_Z   1
loop_
 _symmetry_equiv_pos_site_id
 _symmetry_equiv_pos_as_xyz
  1  'x, y, z'
loop_
 _atom_site_type_symbol
 _atom_site_label
 _atom_site_symmetry_multiplicity
 _atom_site_fract_x
 _atom_site_fract_y
 _atom_site_fract_z
 _atom_site_occupancy
  H  H0  1  -0.00000000  0.50000000  0.24818253  1
  H  H1  1  0.50000000  0.50000000  0.24818253  1
  H  H2  1  0.50000000  -0.00000000  0.24818529  1
  H  H3  1  0.50000000  0.50000000  0.75181747  1
  H  H4  1  0.00000000  0.50000000  0.75181747  1
  H  H5  1  0.50000000  0.00000000  0.75181471  1
  He  He6  1  0.66665203  0.33330406  0.00000000  1
  He  He7  1  0.33334797  0.66669594  0.00000000  1
  He  He8  1  0.66666530  0.33333061  0.50000000  1
  He  He9  1  0.33333470  0.66666939  0.50000000  1
  He  He10  1  -0.00000000  -0.00000000  0.34474267  1
  He  He11  1  0.00000000  0.00000000  0.65525733  1
  Li  Li12  1  -0.00000000  -0.00000000  0.00000000  1
