# generated using pymatgen
data_H7He16Li
_symmetry_space_group_name_H-M   'P 1'
_cell_length_a   7.71361747
_cell_length_b   7.71361747
_cell_length_c   5.45177363
_cell_angle_alpha   90.00000000
_cell_angle_beta   90.00000000
_cell_angle_gamma   90.00000000
_symmetry_Int_Tables_number   1
_chemical_formula_structural   H7He16Li
_chemical_formula_sum   'H7 He16 Li1'
_cell_volume   324.37995532
_cell_formula_units_Z   1
loop_
 _symmetry_equiv_pos_site_id
 _symmetry_equiv_pos_as_xyz
  1  'x, y, z'
loop_
 _atom_site_type_symbol
 _atom_site_label
 _atom_site_symmetry_multiplicity
 _atom_site_fract_x
 _atom_site_fract_y
 _atom_site_fract_z
 _atom_site_occupancy
  H  H0  1  0.24678231  0.24678231  0.50000000  1
  H  H1  1  0.00000000  0.50000000  0.00000000  1
  H  H2  1  0.24678231  0.75321769  0.50000000  1
  H  H3  1  0.50000000  0.00000000  0.00000000  1
  H  H4  1  0.75321769  0.24678231  0.50000000  1
  H  H5  1  0.50000000  0.50000000  0.00000000  1
  H  H6  1  0.75321769  0.75321769  0.50000000  1
  He  He7  1  0.24112262  -0.00000000  0.24223299  1
  He  He8  1  0.00000000  0.24112262  0.24223299  1
  He  He9  1  -0.00000000  0.24112262  0.75776701  1
  He  He10  1  0.24112262  -0.00000000  0.75776701  1
  He  He11  1  0.24784936  0.50000000  0.25088803  1
  He  He12  1  -0.00000000  0.75887738  0.24223299  1
  He  He13  1  0.00000000  0.75887738  0.75776701  1
  He  He14  1  0.24784936  0.50000000  0.74911197  1
  He  He15  1  0.75887738  0.00000000  0.24223299  1
  He  He16  1  0.50000000  0.24784936  0.25088803  1
  He  He17  1  0.50000000  0.24784936  0.74911197  1
  He  He18  1  0.75887738  0.00000000  0.75776701  1
  He  He19  1  0.75215064  0.50000000  0.25088803  1
  He  He20  1  0.50000000  0.75215064  0.25088803  1
  He  He21  1  0.50000000  0.75215064  0.74911197  1
  He  He22  1  0.75215064  0.50000000  0.74911197  1
  Li  Li23  1  0.00000000  0.00000000  0.00000000  1
