# generated using pymatgen
data_HHe4Li
_symmetry_space_group_name_H-M   'P 1'
_cell_length_a   6.25671366
_cell_length_b   6.25671366
_cell_length_c   6.25671366
_cell_angle_alpha   105.99992792
_cell_angle_beta   105.99992792
_cell_angle_gamma   116.66208421
_symmetry_Int_Tables_number   1
_chemical_formula_structural   HHe4Li
_chemical_formula_sum   'H2 He8 Li2'
_cell_volume   186.29177903
_cell_formula_units_Z   2
loop_
 _symmetry_equiv_pos_site_id
 _symmetry_equiv_pos_as_xyz
  1  'x, y, z'
loop_
 _atom_site_type_symbol
 _atom_site_label
 _atom_site_symmetry_multiplicity
 _atom_site_fract_x
 _atom_site_fract_y
 _atom_site_fract_z
 _atom_site_occupancy
  H  H0  1  0.87500000  0.62500000  0.75000000  1
  H  H1  1  0.12500000  0.37500000  0.25000000  1
  He  He2  1  0.79422441  0.22222245  0.42799804  1
  He  He3  1  0.79422441  0.86622637  0.07200196  1
  He  He4  1  0.36622637  0.29422441  0.57200196  1
  He  He5  1  0.72222245  0.29422441  0.92799804  1
  He  He6  1  0.20577559  0.13377363  0.92799804  1
  He  He7  1  0.20577559  0.77777755  0.57200196  1
  He  He8  1  0.63377363  0.70577559  0.42799804  1
  He  He9  1  0.27777755  0.70577559  0.07200196  1
  Li  Li10  1  0.62500000  0.87500000  0.25000000  1
  Li  Li11  1  0.37500000  0.12500000  0.75000000  1
