# generated using pymatgen
data_HHe
_symmetry_space_group_name_H-M   'P 1'
_cell_length_a   3.68563077
_cell_length_b   6.13571696
_cell_length_c   6.36382788
_cell_angle_alpha   90.00000000
_cell_angle_beta   90.00000000
_cell_angle_gamma   90.00000000
_symmetry_Int_Tables_number   1
_chemical_formula_structural   HHe
_chemical_formula_sum   'H4 He4'
_cell_volume   143.91152238
_cell_formula_units_Z   4
loop_
 _symmetry_equiv_pos_site_id
 _symmetry_equiv_pos_as_xyz
  1  'x, y, z'
loop_
 _atom_site_type_symbol
 _atom_site_label
 _atom_site_symmetry_multiplicity
 _atom_site_fract_x
 _atom_site_fract_y
 _atom_site_fract_z
 _atom_site_occupancy
  H  H0  1  0.25000000  0.24629695  0.41611103  1
  H  H1  1  0.75000000  0.25370305  0.91611103  1
  H  H2  1  0.75000000  0.75370305  0.58388897  1
  H  H3  1  0.25000000  0.74629695  0.08388897  1
  He  He4  1  0.25000000  0.00127442  0.75375390  1
  He  He5  1  0.75000000  0.49872558  0.25375390  1
  He  He6  1  0.75000000  0.99872558  0.24624610  1
  He  He7  1  0.25000000  0.50127442  0.74624610  1
