# generated using pymatgen
data_HHe4Li
_symmetry_space_group_name_H-M   'P 1'
_cell_length_a   7.63592526
_cell_length_b   7.63592526
_cell_length_c   7.63592526
_cell_angle_alpha   136.04609858
_cell_angle_beta   136.04609858
_cell_angle_gamma   63.90907415
_symmetry_Int_Tables_number   1
_chemical_formula_structural   HHe4Li
_chemical_formula_sum   'H2 He8 Li2'
_cell_volume   211.62457950
_cell_formula_units_Z   2
loop_
 _symmetry_equiv_pos_site_id
 _symmetry_equiv_pos_as_xyz
  1  'x, y, z'
loop_
 _atom_site_type_symbol
 _atom_site_label
 _atom_site_symmetry_multiplicity
 _atom_site_fract_x
 _atom_site_fract_y
 _atom_site_fract_z
 _atom_site_occupancy
  H  H0  1  0.50000000  0.50000000  -0.00000000  1
  H  H1  1  0.25000000  0.75000000  0.50000000  1
  He  He2  1  0.20124809  0.31017658  0.35583626  1
  He  He3  1  0.95434033  0.84541183  0.64416374  1
  He  He4  1  0.06017658  0.20434033  0.60892850  1
  He  He5  1  0.59541183  0.45124809  0.39107150  1
  He  He6  1  0.54875191  0.93982342  0.14416374  1
  He  He7  1  0.79565967  0.40458817  0.85583626  1
  He  He8  1  0.68982342  0.04565967  0.89107150  1
  He  He9  1  0.15458817  0.79875191  0.10892850  1
  Li  Li10  1  -0.00000000  -0.00000000  -0.00000000  1
  Li  Li11  1  0.75000000  0.25000000  0.50000000  1
