# generated using pymatgen
data_HHe3Li
_symmetry_space_group_name_H-M   'P 1'
_cell_length_a   7.34138465
_cell_length_b   7.34177353
_cell_length_c   11.38763077
_cell_angle_alpha   71.63215255
_cell_angle_beta   71.63344054
_cell_angle_gamma   60.09274274
_symmetry_Int_Tables_number   1
_chemical_formula_structural   HHe3Li
_chemical_formula_sum   'H6 He18 Li6'
_cell_volume   495.54102147
_cell_formula_units_Z   6
loop_
 _symmetry_equiv_pos_site_id
 _symmetry_equiv_pos_as_xyz
  1  'x, y, z'
loop_
 _atom_site_type_symbol
 _atom_site_label
 _atom_site_symmetry_multiplicity
 _atom_site_fract_x
 _atom_site_fract_y
 _atom_site_fract_z
 _atom_site_occupancy
  H  H0  1  0.32213170  0.41863277  0.24628208  1
  H  H1  1  0.58139193  0.67785093  0.25370453  1
  H  H2  1  0.67786830  0.58136723  0.75371792  1
  H  H3  1  0.41860807  0.32214907  0.74629547  1
  H  H4  1  0.84337109  0.15664409  0.25001393  1
  H  H5  1  0.15662891  0.84335591  0.74998607  1
  He  He6  1  0.28162095  0.46875101  0.09426847  1
  He  He7  1  0.53122075  0.71839642  0.40571531  1
  He  He8  1  0.71837905  0.53124899  0.90573153  1
  He  He9  1  0.46877925  0.28160358  0.59428469  1
  He  He10  1  0.17607488  0.36883594  0.39539314  1
  He  He11  1  0.63123797  0.82389078  0.10460006  1
  He  He12  1  0.82392512  0.63116406  0.60460686  1
  He  He13  1  0.36876203  0.17610922  0.89539994  1
  He  He14  1  0.58257717  0.18273357  0.24859336  1
  He  He15  1  0.81732673  0.41741462  0.25142336  1
  He  He16  1  0.41742283  0.81726643  0.75140664  1
  He  He17  1  0.18267327  0.58258538  0.74857664  1
  He  He18  1  0.88714760  0.01073490  0.39991228  1
  He  He19  1  0.98925528  0.11283877  0.10011751  1
  He  He20  1  0.11285240  0.98926510  0.60008772  1
  He  He21  1  0.01074472  0.88716123  0.89988249  1
  He  He22  1  0.34695227  0.65305830  0.24998148  1
  He  He23  1  0.65304773  0.34694170  0.75001852  1
  Li  Li24  1  0.15678945  0.67076488  0.49945145  1
  Li  Li25  1  0.32919247  0.84324733  0.00055330  1
  Li  Li26  1  0.84321055  0.32923512  0.50054855  1
  Li  Li27  1  0.67080753  0.15675267  0.99944670  1
  Li  Li28  1  -0.00000000  0.50000000  -0.00000000  1
  Li  Li29  1  0.50000000  -0.00000000  0.50000000  1
