# generated using pymatgen
data_H3He7Li
_symmetry_space_group_name_H-M   'P 1'
_cell_length_a   6.82283951
_cell_length_b   6.82283951
_cell_length_c   7.75797432
_cell_angle_alpha   90.00000000
_cell_angle_beta   90.00000000
_cell_angle_gamma   112.20874375
_symmetry_Int_Tables_number   1
_chemical_formula_structural   H3He7Li
_chemical_formula_sum   'H6 He14 Li2'
_cell_volume   334.35042731
_cell_formula_units_Z   2
loop_
 _symmetry_equiv_pos_site_id
 _symmetry_equiv_pos_as_xyz
  1  'x, y, z'
loop_
 _atom_site_type_symbol
 _atom_site_label
 _atom_site_symmetry_multiplicity
 _atom_site_fract_x
 _atom_site_fract_y
 _atom_site_fract_z
 _atom_site_occupancy
  H  H0  1  -0.00000000  -0.00000000  0.00000000  1
  H  H1  1  0.00000000  0.00000000  0.50000000  1
  H  H2  1  0.46750560  0.90765825  0.25000000  1
  H  H3  1  0.53249440  0.09234175  0.75000000  1
  H  H4  1  0.90765825  0.46750560  0.25000000  1
  H  H5  1  0.09234175  0.53249440  0.75000000  1
  He  He6  1  0.55811841  0.80459577  0.96086673  1
  He  He7  1  0.44188159  0.19540423  0.46086673  1
  He  He8  1  0.80459577  0.55811841  0.53913327  1
  He  He9  1  0.19540423  0.44188159  0.03913327  1
  He  He10  1  0.44188159  0.19540423  0.03913327  1
  He  He11  1  0.55811841  0.80459577  0.53913327  1
  He  He12  1  0.19540423  0.44188159  0.46086673  1
  He  He13  1  0.80459577  0.55811841  0.96086673  1
  He  He14  1  0.83970069  0.10157473  0.25000000  1
  He  He15  1  0.16029931  0.89842527  0.75000000  1
  He  He16  1  0.10157473  0.83970069  0.25000000  1
  He  He17  1  0.89842527  0.16029931  0.75000000  1
  He  He18  1  0.57762246  0.57762246  0.25000000  1
  He  He19  1  0.42237754  0.42237754  0.75000000  1
  Li  Li20  1  0.50000000  0.50000000  0.00000000  1
  Li  Li21  1  0.50000000  0.50000000  0.50000000  1
