# generated using pymatgen
data_HHe3Li
_symmetry_space_group_name_H-M   'P 1'
_cell_length_a   6.23439820
_cell_length_b   6.23439820
_cell_length_c   11.58118340
_cell_angle_alpha   90.00000000
_cell_angle_beta   90.00000000
_cell_angle_gamma   120.00074048
_symmetry_Int_Tables_number   1
_chemical_formula_structural   HHe3Li
_chemical_formula_sum   'H6 He18 Li6'
_cell_volume   389.82474698
_cell_formula_units_Z   6
loop_
 _symmetry_equiv_pos_site_id
 _symmetry_equiv_pos_as_xyz
  1  'x, y, z'
loop_
 _atom_site_type_symbol
 _atom_site_label
 _atom_site_symmetry_multiplicity
 _atom_site_fract_x
 _atom_site_fract_y
 _atom_site_fract_z
 _atom_site_occupancy
  H  H0  1  0.00000620  0.33361284  0.99704985  1
  H  H1  1  0.66638923  0.66638923  0.99704979  1
  H  H2  1  0.33361284  0.00000620  0.99704985  1
  H  H3  1  0.99999380  0.66638716  0.49704985  1
  H  H4  1  0.33361077  0.33361077  0.49704979  1
  H  H5  1  0.66638716  0.99999380  0.49704985  1
  He  He6  1  0.00000273  0.30806965  0.16142566  1
  He  He7  1  0.69192442  0.69192442  0.16142546  1
  He  He8  1  0.30806965  0.00000273  0.16142566  1
  He  He9  1  0.99999727  0.69193035  0.66142566  1
  He  He10  1  0.30807558  0.30807558  0.66142546  1
  He  He11  1  0.69193035  0.99999727  0.66142566  1
  He  He12  1  0.00000242  0.35829804  0.83289126  1
  He  He13  1  0.64169746  0.64169746  0.83289249  1
  He  He14  1  0.35829804  0.00000242  0.83289126  1
  He  He15  1  0.99999758  0.64170196  0.33289126  1
  He  He16  1  0.35830254  0.35830254  0.33289249  1
  He  He17  1  0.64170196  0.99999758  0.33289126  1
  He  He18  1  0.99999621  0.99999621  0.97320389  1
  He  He19  1  0.00000379  0.00000379  0.47320389  1
  He  He20  1  0.33333001  0.66666713  0.01667856  1
  He  He21  1  0.66666999  0.33333287  0.51667856  1
  He  He22  1  0.33333287  0.66666999  0.51667856  1
  He  He23  1  0.66666713  0.33333001  0.01667856  1
  Li  Li24  1  0.00000007  0.00000007  0.27163026  1
  Li  Li25  1  -0.00000007  -0.00000007  0.77163026  1
  Li  Li26  1  0.33333348  0.66666772  0.22879371  1
  Li  Li27  1  0.66666652  0.33333228  0.72879371  1
  Li  Li28  1  0.33333228  0.66666652  0.72879371  1
  Li  Li29  1  0.66666772  0.33333348  0.22879371  1
