# generated using pymatgen
data_H3He2
_symmetry_space_group_name_H-M   'P 1'
_cell_length_a   4.27713771
_cell_length_b   4.27713771
_cell_length_c   5.27368583
_cell_angle_alpha   90.00060458
_cell_angle_beta   89.99939542
_cell_angle_gamma   120.00013877
_symmetry_Int_Tables_number   1
_chemical_formula_structural   H3He2
_chemical_formula_sum   'H3 He2'
_cell_volume   83.55082543
_cell_formula_units_Z   1
loop_
 _symmetry_equiv_pos_site_id
 _symmetry_equiv_pos_as_xyz
  1  'x, y, z'
loop_
 _atom_site_type_symbol
 _atom_site_label
 _atom_site_symmetry_multiplicity
 _atom_site_fract_x
 _atom_site_fract_y
 _atom_site_fract_z
 _atom_site_occupancy
  H  H0  1  -0.00000000  -0.00000000  0.00000000  1
  H  H1  1  0.33332564  0.66667436  0.64352409  1
  H  H2  1  0.66667436  0.33332564  0.35647591  1
  He  He3  1  0.33333365  0.66666635  0.16489784  1
  He  He4  1  0.66666635  0.33333365  0.83510216  1
