# generated using pymatgen
data_H3He
_symmetry_space_group_name_H-M   'P 1'
_cell_length_a   7.90527600
_cell_length_b   7.90527600
_cell_length_c   7.90527600
_cell_angle_alpha   44.74695291
_cell_angle_beta   44.74695291
_cell_angle_gamma   44.74695291
_symmetry_Int_Tables_number   1
_chemical_formula_structural   H3He
_chemical_formula_sum   'H9 He3'
_cell_volume   222.72192205
_cell_formula_units_Z   3
loop_
 _symmetry_equiv_pos_site_id
 _symmetry_equiv_pos_as_xyz
  1  'x, y, z'
loop_
 _atom_site_type_symbol
 _atom_site_label
 _atom_site_symmetry_multiplicity
 _atom_site_fract_x
 _atom_site_fract_y
 _atom_site_fract_z
 _atom_site_occupancy
  H  H0  1  0.00000000  0.50000000  0.50000000  1
  H  H1  1  0.50000000  0.50000000  0.00000000  1
  H  H2  1  0.50000000  -0.00000000  0.50000000  1
  H  H3  1  0.71224263  0.24193304  0.71224263  1
  H  H4  1  0.24193304  0.71224263  0.71224263  1
  H  H5  1  0.71224263  0.71224263  0.24193304  1
  H  H6  1  0.28775737  0.75806696  0.28775737  1
  H  H7  1  0.28775737  0.28775737  0.75806696  1
  H  H8  1  0.75806696  0.28775737  0.28775737  1
  He  He9  1  -0.00000000  -0.00000000  0.00000000  1
  He  He10  1  0.78172133  0.78172133  0.78172133  1
  He  He11  1  0.21827867  0.21827867  0.21827867  1
