# generated using pymatgen
data_H2
_symmetry_space_group_name_H-M   'P 1'
_cell_length_a   4.99956161
_cell_length_b   4.99956161
_cell_length_c   9.80523996
_cell_angle_alpha   90.00000000
_cell_angle_beta   90.00000000
_cell_angle_gamma   125.04970323
_symmetry_Int_Tables_number   1
_chemical_formula_structural   H2
_chemical_formula_sum   H4
_cell_volume   200.64232565
_cell_formula_units_Z   2
loop_
 _symmetry_equiv_pos_site_id
 _symmetry_equiv_pos_as_xyz
  1  'x, y, z'
loop_
 _atom_site_type_symbol
 _atom_site_label
 _atom_site_symmetry_multiplicity
 _atom_site_fract_x
 _atom_site_fract_y
 _atom_site_fract_z
 _atom_site_occupancy
  H  H0  1  0.33953841  0.33953841  0.12203630  1
  H  H1  1  0.16046159  0.16046159  0.62203630  1
  H  H2  1  0.83953841  0.83953841  0.37796370  1
  H  H3  1  0.66046159  0.66046159  0.87796370  1
