# generated using pymatgen
data_H3He3Li
_symmetry_space_group_name_H-M   'P 1'
_cell_length_a   9.82909173
_cell_length_b   9.82909173
_cell_length_c   9.82909173
_cell_angle_alpha   109.47122063
_cell_angle_beta   109.47122063
_cell_angle_gamma   109.47122063
_symmetry_Int_Tables_number   1
_chemical_formula_structural   H3He3Li
_chemical_formula_sum   'H24 He24 Li8'
_cell_volume   731.00150985
_cell_formula_units_Z   8
loop_
 _symmetry_equiv_pos_site_id
 _symmetry_equiv_pos_as_xyz
  1  'x, y, z'
loop_
 _atom_site_type_symbol
 _atom_site_label
 _atom_site_symmetry_multiplicity
 _atom_site_fract_x
 _atom_site_fract_y
 _atom_site_fract_z
 _atom_site_occupancy
  H  H0  1  0.01018626  0.26018626  0.25000000  1
  H  H1  1  0.48981374  0.23981374  0.75000000  1
  H  H2  1  0.23981374  0.25000000  0.98981374  1
  H  H3  1  0.26018626  0.75000000  0.51018626  1
  H  H4  1  0.75000000  0.01018626  0.76018626  1
  H  H5  1  0.25000000  0.48981374  0.73981374  1
  H  H6  1  0.48981374  0.75000000  0.73981374  1
  H  H7  1  0.01018626  0.25000000  0.76018626  1
  H  H8  1  0.26018626  0.01018626  0.75000000  1
  H  H9  1  0.23981374  0.48981374  0.25000000  1
  H  H10  1  0.75000000  0.23981374  0.98981374  1
  H  H11  1  0.25000000  0.26018626  0.51018626  1
  H  H12  1  0.98981374  0.73981374  0.75000000  1
  H  H13  1  0.51018626  0.76018626  0.25000000  1
  H  H14  1  0.76018626  0.75000000  0.01018626  1
  H  H15  1  0.73981374  0.25000000  0.48981374  1
  H  H16  1  0.25000000  0.98981374  0.23981374  1
  H  H17  1  0.75000000  0.51018626  0.26018626  1
  H  H18  1  0.51018626  0.25000000  0.26018626  1
  H  H19  1  0.98981374  0.75000000  0.23981374  1
  H  H20  1  0.73981374  0.98981374  0.25000000  1
  H  H21  1  0.76018626  0.51018626  0.75000000  1
  H  H22  1  0.25000000  0.76018626  0.01018626  1
  H  H23  1  0.75000000  0.73981374  0.48981374  1
  He  He24  1  0.75736446  0.00736446  0.51472893  1
  He  He25  1  0.74263554  0.75736446  0.75000000  1
  He  He26  1  0.00736446  0.49263554  0.75000000  1
  He  He27  1  0.49263554  0.74263554  0.98527107  1
  He  He28  1  0.75736446  0.25000000  0.24263554  1
  He  He29  1  0.00736446  0.01472893  0.25736446  1
  He  He30  1  0.74263554  0.48527107  0.99263554  1
  He  He31  1  0.49263554  0.25000000  0.50736446  1
  He  He32  1  0.48527107  0.49263554  0.24263554  1
  He  He33  1  0.25000000  0.00736446  0.99263554  1
  He  He34  1  0.25000000  0.74263554  0.25736446  1
  He  He35  1  0.01472893  0.75736446  0.50736446  1
  He  He36  1  0.24263554  0.99263554  0.48527107  1
  He  He37  1  0.25736446  0.24263554  0.25000000  1
  He  He38  1  0.99263554  0.50736446  0.25000000  1
  He  He39  1  0.50736446  0.25736446  0.01472893  1
  He  He40  1  0.24263554  0.75000000  0.75736446  1
  He  He41  1  0.99263554  0.98527107  0.74263554  1
  He  He42  1  0.25736446  0.51472893  0.00736446  1
  He  He43  1  0.50736446  0.75000000  0.49263554  1
  He  He44  1  0.51472893  0.50736446  0.75736446  1
  He  He45  1  0.75000000  0.99263554  0.00736446  1
  He  He46  1  0.75000000  0.25736446  0.74263554  1
  He  He47  1  0.98527107  0.24263554  0.49263554  1
  Li  Li48  1  -0.00000000  0.00000000  -0.00000000  1
  Li  Li49  1  0.50000000  0.00000000  0.50000000  1
  Li  Li50  1  0.50000000  0.50000000  0.00000000  1
  Li  Li51  1  0.00000000  0.50000000  0.50000000  1
  Li  Li52  1  0.50000000  0.00000000  -0.00000000  1
  Li  Li53  1  -0.00000000  0.50000000  -0.00000000  1
  Li  Li54  1  0.00000000  0.00000000  0.50000000  1
  Li  Li55  1  0.50000000  0.50000000  0.50000000  1
