# generated using pymatgen
data_H2He4Li
_symmetry_space_group_name_H-M   'P 1'
_cell_length_a   6.29502831
_cell_length_b   7.91221643
_cell_length_c   13.51333703
_cell_angle_alpha   90.00000000
_cell_angle_beta   90.00000000
_cell_angle_gamma   90.00000000
_symmetry_Int_Tables_number   1
_chemical_formula_structural   H2He4Li
_chemical_formula_sum   'H8 He16 Li4'
_cell_volume   673.06724289
_cell_formula_units_Z   4
loop_
 _symmetry_equiv_pos_site_id
 _symmetry_equiv_pos_as_xyz
  1  'x, y, z'
loop_
 _atom_site_type_symbol
 _atom_site_label
 _atom_site_symmetry_multiplicity
 _atom_site_fract_x
 _atom_site_fract_y
 _atom_site_fract_z
 _atom_site_occupancy
  H  H0  1  0.00000000  0.00000000  0.00000000  1
  H  H1  1  0.50000000  0.00000000  0.50000000  1
  H  H2  1  0.00000000  0.50000000  0.00000000  1
  H  H3  1  0.50000000  0.50000000  0.50000000  1
  H  H4  1  0.50445404  0.75000000  0.23248848  1
  H  H5  1  0.00445404  0.25000000  0.26751152  1
  H  H6  1  0.49554596  0.25000000  0.76751152  1
  H  H7  1  0.99554596  0.75000000  0.73248848  1
  He  He8  1  0.73284111  0.75000000  0.40757915  1
  He  He9  1  0.23284111  0.25000000  0.09242085  1
  He  He10  1  0.26715889  0.25000000  0.59242085  1
  He  He11  1  0.76715889  0.75000000  0.90757915  1
  He  He12  1  0.24362482  0.75000000  0.56776484  1
  He  He13  1  0.74362482  0.25000000  0.93223516  1
  He  He14  1  0.75637518  0.25000000  0.43223516  1
  He  He15  1  0.25637518  0.75000000  0.06776484  1
  He  He16  1  0.25057977  0.97831889  0.33258255  1
  He  He17  1  0.75057977  0.02168111  0.16741745  1
  He  He18  1  0.74942023  0.47831889  0.66741745  1
  He  He19  1  0.24942023  0.52168111  0.83258255  1
  He  He20  1  0.74942023  0.02168111  0.66741745  1
  He  He21  1  0.24942023  0.97831889  0.83258255  1
  He  He22  1  0.25057977  0.52168111  0.33258255  1
  He  He23  1  0.75057977  0.47831889  0.16741745  1
  Li  Li24  1  0.09458747  0.75000000  0.41120939  1
  Li  Li25  1  0.59458747  0.25000000  0.08879061  1
  Li  Li26  1  0.90541253  0.25000000  0.58879061  1
  Li  Li27  1  0.40541253  0.75000000  0.91120939  1
