# generated using pymatgen
data_HHe
_symmetry_space_group_name_H-M   'P 1'
_cell_length_a   3.79321856
_cell_length_b   3.79321159
_cell_length_c   80.65735317
_cell_angle_alpha   89.99976934
_cell_angle_beta   90.00000000
_cell_angle_gamma   120.00006079
_symmetry_Int_Tables_number   1
_chemical_formula_structural   HHe
_chemical_formula_sum   'H26 He26'
_cell_volume   1005.05370043
_cell_formula_units_Z   26
loop_
 _symmetry_equiv_pos_site_id
 _symmetry_equiv_pos_as_xyz
  1  'x, y, z'
loop_
 _atom_site_type_symbol
 _atom_site_label
 _atom_site_symmetry_multiplicity
 _atom_site_fract_x
 _atom_site_fract_y
 _atom_site_fract_z
 _atom_site_occupancy
  H  H0  1  -0.00000068  -0.00000137  0.02884892  1
  H  H1  1  0.66666678  0.33333357  0.06729926  1
  H  H2  1  0.33332627  0.66665254  0.10577424  1
  H  H3  1  0.00000103  0.00000207  0.14424470  1
  H  H4  1  0.66666783  0.33333566  0.18268451  1
  H  H5  1  0.33332591  0.66665181  0.22112045  1
  H  H6  1  0.00000381  0.00000762  0.25957247  1
  H  H7  1  0.66667594  0.33335187  0.29813548  1
  H  H8  1  0.99999928  0.99999855  0.33656579  1
  H  H9  1  0.33333211  0.66666423  0.37499345  1
  H  H10  1  0.66667403  0.33334807  0.41343788  1
  H  H11  1  0.99999510  0.99999019  0.45189268  1
  H  H12  1  0.33331801  0.66663602  0.49043271  1
  H  H13  1  -0.00000051  -0.00000101  0.52884282  1
  H  H14  1  0.66666977  0.33333954  0.56726972  1
  H  H15  1  0.33333588  0.66667176  0.60581334  1
  H  H16  1  0.66667368  0.33334736  0.64424432  1
  H  H17  1  0.99999510  0.99999019  0.68270684  1
  H  H18  1  0.33331821  0.66663641  0.72137916  1
  H  H19  1  0.99998055  0.99996109  0.76018506  1
  H  H20  1  0.66669038  0.33338076  0.79661120  1
  H  H21  1  0.00000239  0.00000479  0.83628609  1
  H  H22  1  0.33333282  0.66666563  0.87493215  1
  H  H23  1  0.66667399  0.33334799  0.91344237  1
  H  H24  1  0.99999540  0.99999079  0.95188566  1
  H  H25  1  0.33332541  0.66665083  0.99042660  1
  He  He26  1  0.99999294  0.99998588  0.00003418  1
  He  He27  1  0.66666683  0.33333366  0.03846357  1
  He  He28  1  0.33333646  0.66667292  0.07692875  1
  He  He29  1  0.99999364  0.99998728  0.11541171  1
  He  He30  1  0.66666872  0.33333744  0.15385317  1
  He  He31  1  0.33333772  0.66667543  0.19227622  1
  He  He32  1  0.99999303  0.99998605  0.23071556  1
  He  He33  1  0.66667183  0.33334366  0.26924654  1
  He  He34  1  0.00000754  0.00001507  0.30773292  1
  He  He35  1  0.33333078  0.66666156  0.34615236  1
  He  He36  1  0.66666157  0.33332313  0.38458364  1
  He  He37  1  0.00000614  0.00001229  0.42304490  1
  He  He38  1  0.33332637  0.66665273  0.46155818  1
  He  He39  1  0.99998636  0.99997271  0.50001106  1
  He  He40  1  0.66666751  0.33333502  0.53842591  1
  He  He41  1  0.33333964  0.66667929  0.57692579  1
  He  He42  1  0.66666548  0.33333095  0.61540839  1
  He  He43  1  0.00000554  0.00001108  0.65384703  1
  He  He44  1  0.33332652  0.66665304  0.69240365  1
  He  He45  1  0.99998561  0.99997123  0.73117444  1
  He  He46  1  0.33330942  0.66661884  0.77009504  1
  He  He47  1  0.00001425  0.00002849  0.80741518  1
  He  He48  1  0.33333300  0.66666601  0.84602020  1
  He  He49  1  0.66666186  0.33332373  0.88460449  1
  He  He50  1  0.00000603  0.00001206  0.92306627  1
  He  He51  1  0.33332675  0.66665350  0.96157297  1
