# generated using pymatgen
data_H9He4
_symmetry_space_group_name_H-M   'P 1'
_cell_length_a   8.75384523
_cell_length_b   8.75384523
_cell_length_c   8.75384523
_cell_angle_alpha   90.00000000
_cell_angle_beta   90.00000000
_cell_angle_gamma   90.00000000
_symmetry_Int_Tables_number   1
_chemical_formula_structural   H9He4
_chemical_formula_sum   'H36 He16'
_cell_volume   670.80546472
_cell_formula_units_Z   4
loop_
 _symmetry_equiv_pos_site_id
 _symmetry_equiv_pos_as_xyz
  1  'x, y, z'
loop_
 _atom_site_type_symbol
 _atom_site_label
 _atom_site_symmetry_multiplicity
 _atom_site_fract_x
 _atom_site_fract_y
 _atom_site_fract_z
 _atom_site_occupancy
  H  H0  1  0.82971861  0.82971861  0.82971861  1
  H  H1  1  0.17028139  0.17028139  0.82971861  1
  H  H2  1  0.17028139  0.82971861  0.17028139  1
  H  H3  1  0.82971861  0.17028139  0.17028139  1
  H  H4  1  0.60477553  0.60477553  0.60477553  1
  H  H5  1  0.39522447  0.39522447  0.60477553  1
  H  H6  1  0.39522447  0.60477553  0.39522447  1
  H  H7  1  0.60477553  0.39522447  0.39522447  1
  H  H8  1  0.32575763  0.32575763  0.32575763  1
  H  H9  1  0.67424237  0.67424237  0.32575763  1
  H  H10  1  0.67424237  0.32575763  0.67424237  1
  H  H11  1  0.32575763  0.67424237  0.67424237  1
  H  H12  1  0.35547233  -0.00000000  -0.00000000  1
  H  H13  1  0.64452767  0.00000000  -0.00000000  1
  H  H14  1  0.00000000  0.35547233  -0.00000000  1
  H  H15  1  -0.00000000  0.64452767  0.00000000  1
  H  H16  1  -0.00000000  -0.00000000  0.35547233  1
  H  H17  1  0.00000000  0.00000000  0.64452767  1
  H  H18  1  0.85495797  0.50000000  0.50000000  1
  H  H19  1  0.14504203  0.50000000  0.50000000  1
  H  H20  1  0.50000000  0.85495797  0.50000000  1
  H  H21  1  0.50000000  0.14504203  0.50000000  1
  H  H22  1  0.50000000  0.50000000  0.85495797  1
  H  H23  1  0.50000000  0.50000000  0.14504203  1
  H  H24  1  0.31701063  0.31701063  0.02937986  1
  H  H25  1  0.68298937  0.68298937  0.02937986  1
  H  H26  1  0.68298937  0.31701063  0.97062014  1
  H  H27  1  0.31701063  0.68298937  0.97062014  1
  H  H28  1  0.02937986  0.31701063  0.31701063  1
  H  H29  1  0.02937986  0.68298937  0.68298937  1
  H  H30  1  0.97062014  0.68298937  0.31701063  1
  H  H31  1  0.97062014  0.31701063  0.68298937  1
  H  H32  1  0.31701063  0.02937986  0.31701063  1
  H  H33  1  0.68298937  0.02937986  0.68298937  1
  H  H34  1  0.31701063  0.97062014  0.68298937  1
  H  H35  1  0.68298937  0.97062014  0.31701063  1
  He  He36  1  0.12201283  0.12201283  0.12201283  1
  He  He37  1  0.87798717  0.87798717  0.12201283  1
  He  He38  1  0.87798717  0.12201283  0.87798717  1
  He  He39  1  0.12201283  0.87798717  0.87798717  1
  He  He40  1  0.80957159  0.80957159  0.53383713  1
  He  He41  1  0.19042841  0.19042841  0.53383713  1
  He  He42  1  0.19042841  0.80957159  0.46616287  1
  He  He43  1  0.80957159  0.19042841  0.46616287  1
  He  He44  1  0.53383713  0.80957159  0.80957159  1
  He  He45  1  0.53383713  0.19042841  0.19042841  1
  He  He46  1  0.46616287  0.19042841  0.80957159  1
  He  He47  1  0.46616287  0.80957159  0.19042841  1
  He  He48  1  0.80957159  0.53383713  0.80957159  1
  He  He49  1  0.19042841  0.53383713  0.19042841  1
  He  He50  1  0.80957159  0.46616287  0.19042841  1
  He  He51  1  0.19042841  0.46616287  0.80957159  1
