# generated using pymatgen
data_H2HeLi2
_symmetry_space_group_name_H-M   'P 1'
_cell_length_a   4.08153864
_cell_length_b   4.08157671
_cell_length_c   7.09233635
_cell_angle_alpha   90.00006565
_cell_angle_beta   90.00033966
_cell_angle_gamma   120.00090036
_symmetry_Int_Tables_number   1
_chemical_formula_structural   H2HeLi2
_chemical_formula_sum   'H2 He1 Li2'
_cell_volume   102.32173395
_cell_formula_units_Z   1
loop_
 _symmetry_equiv_pos_site_id
 _symmetry_equiv_pos_as_xyz
  1  'x, y, z'
loop_
 _atom_site_type_symbol
 _atom_site_label
 _atom_site_symmetry_multiplicity
 _atom_site_fract_x
 _atom_site_fract_y
 _atom_site_fract_z
 _atom_site_occupancy
  H  H0  1  0.66666698  0.33332783  0.27627933  1
  H  H1  1  0.33333302  0.66667217  0.72372067  1
  He  He2  1  -0.00000000  -0.00000000  0.00000000  1
  Li  Li3  1  0.66667058  0.33333532  0.62705116  1
  Li  Li4  1  0.33332942  0.66666468  0.37294884  1
