# generated using pymatgen
data_H4He11
_symmetry_space_group_name_H-M   'P 1'
_cell_length_a   9.59862486
_cell_length_b   9.59862486
_cell_length_c   9.59862486
_cell_angle_alpha   60.00000000
_cell_angle_beta   60.00000000
_cell_angle_gamma   60.00000000
_symmetry_Int_Tables_number   1
_chemical_formula_structural   H4He11
_chemical_formula_sum   'H8 He22'
_cell_volume   625.33402303
_cell_formula_units_Z   2
loop_
 _symmetry_equiv_pos_site_id
 _symmetry_equiv_pos_as_xyz
  1  'x, y, z'
loop_
 _atom_site_type_symbol
 _atom_site_label
 _atom_site_symmetry_multiplicity
 _atom_site_fract_x
 _atom_site_fract_y
 _atom_site_fract_z
 _atom_site_occupancy
  H  H0  1  0.00000000  0.00000000  0.00000000  1
  H  H1  1  0.50000000  0.50000000  0.50000000  1
  H  H2  1  0.50000000  -0.00000000  0.50000000  1
  H  H3  1  0.00000000  0.50000000  0.00000000  1
  H  H4  1  0.00000000  0.00000000  0.50000000  1
  H  H5  1  0.50000000  0.50000000  -0.00000000  1
  H  H6  1  0.00000000  0.50000000  0.50000000  1
  H  H7  1  0.50000000  0.00000000  0.00000000  1
  He  He8  1  0.80285533  0.19714467  0.80285533  1
  He  He9  1  0.19714467  0.80285533  0.19714467  1
  He  He10  1  0.19714467  0.19714467  0.80285533  1
  He  He11  1  0.80285533  0.80285533  0.19714467  1
  He  He12  1  0.19714467  0.80285533  0.80285533  1
  He  He13  1  0.80285533  0.19714467  0.19714467  1
  He  He14  1  0.38299564  0.38299564  0.85101307  1
  He  He15  1  0.38299564  0.85101307  0.38299564  1
  He  He16  1  0.38299564  0.38299564  0.38299564  1
  He  He17  1  0.85101307  0.38299564  0.38299564  1
  He  He18  1  0.61700436  0.14898693  0.61700436  1
  He  He19  1  0.61700436  0.61700436  0.14898693  1
  He  He20  1  0.61700436  0.61700436  0.61700436  1
  He  He21  1  0.14898693  0.61700436  0.61700436  1
  He  He22  1  0.15795434  0.15795434  0.52613699  1
  He  He23  1  0.15795434  0.52613699  0.15795434  1
  He  He24  1  0.15795434  0.15795434  0.15795434  1
  He  He25  1  0.52613699  0.15795434  0.15795434  1
  He  He26  1  0.84204566  0.47386301  0.84204566  1
  He  He27  1  0.84204566  0.84204566  0.47386301  1
  He  He28  1  0.84204566  0.84204566  0.84204566  1
  He  He29  1  0.47386301  0.84204566  0.84204566  1
