# generated using pymatgen
data_HHe13
_symmetry_space_group_name_H-M   'P 1'
_cell_length_a   6.57083781
_cell_length_b   6.57083781
_cell_length_c   5.12067577
_cell_angle_alpha   81.47160509
_cell_angle_beta   81.47160509
_cell_angle_gamma   68.93765664
_symmetry_Int_Tables_number   1
_chemical_formula_structural   HHe13
_chemical_formula_sum   'H1 He13'
_cell_volume   202.95343698
_cell_formula_units_Z   1
loop_
 _symmetry_equiv_pos_site_id
 _symmetry_equiv_pos_as_xyz
  1  'x, y, z'
loop_
 _atom_site_type_symbol
 _atom_site_label
 _atom_site_symmetry_multiplicity
 _atom_site_fract_x
 _atom_site_fract_y
 _atom_site_fract_z
 _atom_site_occupancy
  H  H0  1  -0.00000000  -0.00000000  0.50000000  1
  He  He1  1  0.00000000  0.00000000  0.00000000  1
  He  He2  1  0.61039347  0.61039347  0.07234408  1
  He  He3  1  0.38960653  0.38960653  0.92765592  1
  He  He4  1  0.22355844  0.22355844  0.63672081  1
  He  He5  1  0.77644156  0.77644156  0.36327919  1
  He  He6  1  0.77933487  0.38015268  0.67686586  1
  He  He7  1  0.61984732  0.22066513  0.32313414  1
  He  He8  1  0.22066513  0.61984732  0.32313414  1
  He  He9  1  0.38015268  0.77933487  0.67686586  1
  He  He10  1  0.99918095  0.35825847  0.19508153  1
  He  He11  1  0.64174153  0.00081905  0.80491847  1
  He  He12  1  0.00081905  0.64174153  0.80491847  1
  He  He13  1  0.35825847  0.99918095  0.19508153  1
