# generated using pymatgen
data_HHe2
_symmetry_space_group_name_H-M   'P 1'
_cell_length_a   5.93248591
_cell_length_b   5.93248591
_cell_length_c   5.93248591
_cell_angle_alpha   90.00000000
_cell_angle_beta   90.00000000
_cell_angle_gamma   90.00000000
_symmetry_Int_Tables_number   1
_chemical_formula_structural   HHe2
_chemical_formula_sum   'H4 He8'
_cell_volume   208.79021698
_cell_formula_units_Z   4
loop_
 _symmetry_equiv_pos_site_id
 _symmetry_equiv_pos_as_xyz
  1  'x, y, z'
loop_
 _atom_site_type_symbol
 _atom_site_label
 _atom_site_symmetry_multiplicity
 _atom_site_fract_x
 _atom_site_fract_y
 _atom_site_fract_z
 _atom_site_occupancy
  H  H0  1  -0.00000000  0.00000000  0.00000000  1
  H  H1  1  0.50000000  0.00000000  0.50000000  1
  H  H2  1  0.00000000  0.50000000  0.50000000  1
  H  H3  1  0.50000000  0.50000000  0.00000000  1
  He  He4  1  0.37726462  0.37726462  0.37726462  1
  He  He5  1  0.12273538  0.62273538  0.87726462  1
  He  He6  1  0.62273538  0.87726462  0.12273538  1
  He  He7  1  0.87726462  0.12273538  0.62273538  1
  He  He8  1  0.62273538  0.62273538  0.62273538  1
  He  He9  1  0.87726462  0.37726462  0.12273538  1
  He  He10  1  0.37726462  0.12273538  0.87726462  1
  He  He11  1  0.12273538  0.87726462  0.37726462  1
