# generated using pymatgen
data_H2He3Li
_symmetry_space_group_name_H-M   'P 1'
_cell_length_a   5.49232184
_cell_length_b   5.49203098
_cell_length_c   10.87091485
_cell_angle_alpha   85.06686406
_cell_angle_beta   85.05574783
_cell_angle_gamma   120.01099825
_symmetry_Int_Tables_number   1
_chemical_formula_structural   H2He3Li
_chemical_formula_sum   'H8 He12 Li4'
_cell_volume   279.70515923
_cell_formula_units_Z   4
loop_
 _symmetry_equiv_pos_site_id
 _symmetry_equiv_pos_as_xyz
  1  'x, y, z'
loop_
 _atom_site_type_symbol
 _atom_site_label
 _atom_site_symmetry_multiplicity
 _atom_site_fract_x
 _atom_site_fract_y
 _atom_site_fract_z
 _atom_site_occupancy
  H  H0  1  0.83994118  0.67996279  0.99988772  1
  H  H1  1  0.32000783  0.16033107  0.50063626  1
  H  H2  1  0.16005882  0.32003721  0.00011228  1
  H  H3  1  0.67999217  0.83966893  0.49936374  1
  H  H4  1  0.50000000  -0.00000000  -0.00000000  1
  H  H5  1  -0.00000000  0.50000000  0.50000000  1
  H  H6  1  0.91624356  0.08374624  0.74999617  1
  H  H7  1  0.08375644  0.91625376  0.25000383  1
  He  He8  1  0.24299115  0.04817153  0.85433977  1
  He  He9  1  0.95186901  0.75702400  0.64565738  1
  He  He10  1  0.75700885  0.95182847  0.14566023  1
  He  He11  1  0.04813099  0.24297600  0.35434262  1
  He  He12  1  0.51843358  0.68542376  0.85406960  1
  He  He13  1  0.31477907  0.48170915  0.64591132  1
  He  He14  1  0.48156642  0.31457624  0.14593040  1
  He  He15  1  0.68522093  0.51829085  0.35408868  1
  He  He16  1  0.88118106  0.41059961  0.85425018  1
  He  He17  1  0.58958871  0.11883697  0.64579329  1
  He  He18  1  0.11881894  0.58940039  0.14574982  1
  He  He19  1  0.41041129  0.88116303  0.35420671  1
  Li  Li20  1  0.25025520  0.74985045  0.74999906  1
  Li  Li21  1  0.74974480  0.25014955  0.25000094  1
  Li  Li22  1  0.58332106  0.41676921  0.75000848  1
  Li  Li23  1  0.41667894  0.58323079  0.24999152  1
