# generated using pymatgen
data_H9HeLi4
_symmetry_space_group_name_H-M   'P 1'
_cell_length_a   8.46636964
_cell_length_b   8.46636964
_cell_length_c   5.47382949
_cell_angle_alpha   90.00000000
_cell_angle_beta   90.00000000
_cell_angle_gamma   90.00000000
_symmetry_Int_Tables_number   1
_chemical_formula_structural   H9HeLi4
_chemical_formula_sum   'H18 He2 Li8'
_cell_volume   392.36089456
_cell_formula_units_Z   2
loop_
 _symmetry_equiv_pos_site_id
 _symmetry_equiv_pos_as_xyz
  1  'x, y, z'
loop_
 _atom_site_type_symbol
 _atom_site_label
 _atom_site_symmetry_multiplicity
 _atom_site_fract_x
 _atom_site_fract_y
 _atom_site_fract_z
 _atom_site_occupancy
  H  H0  1  0.04129075  0.35713775  0.46821894  1
  H  H1  1  0.45870925  0.14286225  0.46821894  1
  H  H2  1  0.14286225  0.04129075  0.46821894  1
  H  H3  1  0.35713775  0.45870925  0.46821894  1
  H  H4  1  0.95870925  0.64286225  0.53178106  1
  H  H5  1  0.54129075  0.85713775  0.53178106  1
  H  H6  1  0.85713775  0.95870925  0.53178106  1
  H  H7  1  0.64286225  0.54129075  0.53178106  1
  H  H8  1  0.17485531  0.50422407  0.91626041  1
  H  H9  1  0.32514469  0.99577593  0.91626041  1
  H  H10  1  0.99577593  0.17485531  0.91626041  1
  H  H11  1  0.50422407  0.32514469  0.91626041  1
  H  H12  1  0.82514469  0.49577593  0.08373959  1
  H  H13  1  0.67485531  0.00422407  0.08373959  1
  H  H14  1  0.00422407  0.82514469  0.08373959  1
  H  H15  1  0.49577593  0.67485531  0.08373959  1
  H  H16  1  0.25000000  0.75000000  0.50000000  1
  H  H17  1  0.75000000  0.25000000  0.50000000  1
  He  He18  1  0.25000000  0.25000000  0.14539084  1
  He  He19  1  0.75000000  0.75000000  0.85460916  1
  Li  Li20  1  0.15893508  0.53641236  0.62063999  1
  Li  Li21  1  0.34106492  0.96358764  0.62063999  1
  Li  Li22  1  0.96358764  0.15893508  0.62063999  1
  Li  Li23  1  0.53641236  0.34106492  0.62063999  1
  Li  Li24  1  0.84106492  0.46358764  0.37936001  1
  Li  Li25  1  0.65893508  0.03641236  0.37936001  1
  Li  Li26  1  0.03641236  0.84106492  0.37936001  1
  Li  Li27  1  0.46358764  0.65893508  0.37936001  1
