# generated using pymatgen
data_H2HeLi7Be2
_symmetry_space_group_name_H-M   'P 1'
_cell_length_a   8.39794009
_cell_length_b   8.39794009
_cell_length_c   5.38978278
_cell_angle_alpha   90.00000000
_cell_angle_beta   90.00000000
_cell_angle_gamma   90.00000000
_symmetry_Int_Tables_number   1
_chemical_formula_structural   H2HeLi7Be2
_chemical_formula_sum   'H4 He2 Li14 Be4'
_cell_volume   380.11657441
_cell_formula_units_Z   2
loop_
 _symmetry_equiv_pos_site_id
 _symmetry_equiv_pos_as_xyz
  1  'x, y, z'
loop_
 _atom_site_type_symbol
 _atom_site_label
 _atom_site_symmetry_multiplicity
 _atom_site_fract_x
 _atom_site_fract_y
 _atom_site_fract_z
 _atom_site_occupancy
  H  H0  1  0.14121515  0.35878485  0.94359073  1
  H  H1  1  0.85878485  0.64121515  0.94359073  1
  H  H2  1  0.35878485  0.85878485  0.05640927  1
  H  H3  1  0.64121515  0.14121515  0.05640927  1
  He  He4  1  0.00000000  0.00000000  0.00000000  1
  He  He5  1  0.50000000  0.50000000  0.00000000  1
  Li  Li6  1  0.50000000  0.00000000  0.19000447  1
  Li  Li7  1  0.00000000  0.50000000  0.80999553  1
  Li  Li8  1  0.13947206  0.36052794  0.26801294  1
  Li  Li9  1  0.86052794  0.63947206  0.26801294  1
  Li  Li10  1  0.36052794  0.86052794  0.73198706  1
  Li  Li11  1  0.63947206  0.13947206  0.73198706  1
  Li  Li12  1  0.08170074  0.18357358  0.78227464  1
  Li  Li13  1  0.91829926  0.81642642  0.78227464  1
  Li  Li14  1  0.18357358  0.91829926  0.21772536  1
  Li  Li15  1  0.81642642  0.08170074  0.21772536  1
  Li  Li16  1  0.41829926  0.68357358  0.21772536  1
  Li  Li17  1  0.58170074  0.31642642  0.21772536  1
  Li  Li18  1  0.31642642  0.41829926  0.78227464  1
  Li  Li19  1  0.68357358  0.58170074  0.78227464  1
  Be  Be20  1  0.33336581  0.16663419  0.50649490  1
  Be  Be21  1  0.66663419  0.83336581  0.50649490  1
  Be  Be22  1  0.16663419  0.66663419  0.49350510  1
  Be  Be23  1  0.83336581  0.33336581  0.49350510  1
