# generated using pymatgen
data_H5He
_symmetry_space_group_name_H-M   'P 1'
_cell_length_a   8.65016778
_cell_length_b   8.65016778
_cell_length_c   8.65016778
_cell_angle_alpha   95.52431406
_cell_angle_beta   95.52431406
_cell_angle_gamma   143.84886298
_symmetry_Int_Tables_number   1
_chemical_formula_structural   H5He
_chemical_formula_sum   'H20 He4'
_cell_volume   362.98150016
_cell_formula_units_Z   4
loop_
 _symmetry_equiv_pos_site_id
 _symmetry_equiv_pos_as_xyz
  1  'x, y, z'
loop_
 _atom_site_type_symbol
 _atom_site_label
 _atom_site_symmetry_multiplicity
 _atom_site_fract_x
 _atom_site_fract_y
 _atom_site_fract_z
 _atom_site_occupancy
  H  H0  1  0.61310859  0.48618714  0.20858619  1
  H  H1  1  0.27760095  0.40452240  0.79141381  1
  H  H2  1  0.51381286  0.72239905  0.12692145  1
  H  H3  1  0.59547760  0.38689141  0.87307855  1
  H  H4  1  0.47239905  0.76381286  0.62692145  1
  H  H5  1  0.13689141  0.84547760  0.37307855  1
  H  H6  1  0.15452240  0.52760095  0.29141381  1
  H  H7  1  0.23618714  0.86310859  0.70858619  1
  H  H8  1  0.37500000  0.85370558  0.97870558  1
  H  H9  1  0.87500000  0.39629442  0.02129442  1
  H  H10  1  0.14629442  0.12500000  0.52129442  1
  H  H11  1  0.60370558  0.62500000  0.47870558  1
  H  H12  1  0.07406623  0.14565780  0.22058330  1
  H  H13  1  0.92507450  0.85348293  0.77941670  1
  H  H14  1  0.85434220  0.07492550  0.92840842  1
  H  H15  1  0.14651707  0.92593377  0.07159158  1
  H  H16  1  0.82492550  0.10434220  0.42840842  1
  H  H17  1  0.67593377  0.39651707  0.57159158  1
  H  H18  1  0.60348293  0.17507450  0.27941670  1
  H  H19  1  0.89565780  0.32406623  0.72058330  1
  He  He20  1  0.37500000  0.21366555  0.33866555  1
  He  He21  1  0.87500000  0.03633445  0.66133445  1
  He  He22  1  0.78633445  0.12500000  0.16133445  1
  He  He23  1  0.96366555  0.62500000  0.83866555  1
