# generated using pymatgen
data_H3HeLi2
_symmetry_space_group_name_H-M   'P 1'
_cell_length_a   7.06878980
_cell_length_b   7.32109123
_cell_length_c   16.43567953
_cell_angle_alpha   89.99761677
_cell_angle_beta   90.00000000
_cell_angle_gamma   90.00000000
_symmetry_Int_Tables_number   1
_chemical_formula_structural   H3HeLi2
_chemical_formula_sum   'H24 He8 Li16'
_cell_volume   850.56704186
_cell_formula_units_Z   8
loop_
 _symmetry_equiv_pos_site_id
 _symmetry_equiv_pos_as_xyz
  1  'x, y, z'
loop_
 _atom_site_type_symbol
 _atom_site_label
 _atom_site_symmetry_multiplicity
 _atom_site_fract_x
 _atom_site_fract_y
 _atom_site_fract_z
 _atom_site_occupancy
  H  H0  1  0.17400714  0.46410508  0.54763101  1
  H  H1  1  0.82599853  0.03588418  0.04762840  1
  H  H2  1  0.67401745  0.53582519  0.95237240  1
  H  H3  1  0.32597897  0.96402281  0.45236885  1
  H  H4  1  0.82598255  0.53582519  0.45237240  1
  H  H5  1  0.17402103  0.96402281  0.95236885  1
  H  H6  1  0.32599286  0.46410508  0.04763101  1
  H  H7  1  0.67400147  0.03588418  0.54762840  1
  H  H8  1  0.46110876  0.64222761  0.57647068  1
  H  H9  1  0.53889666  0.85775156  0.07647050  1
  H  H10  1  0.96112858  0.35772865  0.92352726  1
  H  H11  1  0.03886317  0.14213390  0.42352793  1
  H  H12  1  0.53887142  0.35772865  0.42352726  1
  H  H13  1  0.46113683  0.14213390  0.92352793  1
  H  H14  1  0.03889124  0.64222761  0.07647068  1
  H  H15  1  0.96110334  0.85775156  0.57647050  1
  H  H16  1  0.43410201  0.33278383  0.62927972  1
  H  H17  1  0.56589945  0.16718432  0.12928058  1
  H  H18  1  0.93409303  0.66716471  0.87071554  1
  H  H19  1  0.06591587  0.83270126  0.37071381  1
  H  H20  1  0.56590697  0.66716471  0.37071554  1
  H  H21  1  0.43408413  0.83270126  0.87071381  1
  H  H22  1  0.06589799  0.33278383  0.12927972  1
  H  H23  1  0.93410055  0.16718432  0.62928058  1
  He  He24  1  0.34443973  0.97187764  0.62295070  1
  He  He25  1  0.65555799  0.52809265  0.12295750  1
  He  He26  1  0.84444346  0.02805754  0.87704626  1
  He  He27  1  0.15555126  0.47181662  0.37704964  1
  He  He28  1  0.65555654  0.02805754  0.37704626  1
  He  He29  1  0.34444874  0.47181662  0.87704964  1
  He  He30  1  0.15556027  0.97187764  0.12295070  1
  He  He31  1  0.84444201  0.52809265  0.62295750  1
  Li  Li32  1  0.32909227  0.49933756  0.60680528  1
  Li  Li33  1  0.67090242  0.00063506  0.10680737  1
  Li  Li34  1  0.82910699  0.50059559  0.89319600  1
  Li  Li35  1  0.17091459  0.99924449  0.39319423  1
  Li  Li36  1  0.67089301  0.50059559  0.39319600  1
  Li  Li37  1  0.32908541  0.99924449  0.89319423  1
  Li  Li38  1  0.17090773  0.49933756  0.10680528  1
  Li  Li39  1  0.82909758  0.00063506  0.60680737  1
  Li  Li40  1  0.19605340  0.60839858  0.70806904  1
  Li  Li41  1  0.80395481  0.89155337  0.20806698  1
  Li  Li42  1  0.69606086  0.39152186  0.79193549  1
  Li  Li43  1  0.30394615  0.10835596  0.29193482  1
  Li  Li44  1  0.80393914  0.39152186  0.29193549  1
  Li  Li45  1  0.19605385  0.10835596  0.79193482  1
  Li  Li46  1  0.30394660  0.60839858  0.20806904  1
  Li  Li47  1  0.69604519  0.89155337  0.70806698  1
