# generated using pymatgen
data_HHeLiBe4B
_symmetry_space_group_name_H-M   'P 1'
_cell_length_a   7.56559055
_cell_length_b   5.44520096
_cell_length_c   11.47868442
_cell_angle_alpha   61.68133561
_cell_angle_beta   84.92743041
_cell_angle_gamma   90.00000000
_symmetry_Int_Tables_number   1
_chemical_formula_structural   HHeLiBe4B
_chemical_formula_sum   'H4 He4 Li4 Be16 B4'
_cell_volume   414.18008108
_cell_formula_units_Z   4
loop_
 _symmetry_equiv_pos_site_id
 _symmetry_equiv_pos_as_xyz
  1  'x, y, z'
loop_
 _atom_site_type_symbol
 _atom_site_label
 _atom_site_symmetry_multiplicity
 _atom_site_fract_x
 _atom_site_fract_y
 _atom_site_fract_z
 _atom_site_occupancy
  H  H0  1  0.39881188  0.31851023  0.37838336  1
  H  H1  1  0.60118812  0.07527695  0.12161664  1
  H  H2  1  0.60118812  0.68148977  0.62161664  1
  H  H3  1  0.39881188  0.92472305  0.87838336  1
  He  He4  1  0.19191228  0.81013254  0.31221106  1
  He  He5  1  0.80808772  0.43455466  0.18778894  1
  He  He6  1  0.80808772  0.18986746  0.68778894  1
  He  He7  1  0.19191228  0.56544534  0.81221106  1
  Li  Li8  1  0.34567510  0.01782769  0.41291417  1
  Li  Li9  1  0.65432490  0.84365604  0.08708583  1
  Li  Li10  1  0.65432490  0.98217231  0.58708583  1
  Li  Li11  1  0.34567510  0.15634396  0.91291417  1
  Be  Be12  1  0.39921176  0.16560352  0.14620671  1
  Be  Be13  1  0.60078824  0.45801694  0.35379329  1
  Be  Be14  1  0.60078824  0.83439648  0.85379329  1
  Be  Be15  1  0.39921176  0.54198306  0.64620671  1
  Be  Be16  1  0.28274440  0.39080212  0.48612728  1
  Be  Be17  1  0.71725560  0.36305669  0.01387272  1
  Be  Be18  1  0.71725560  0.60919788  0.51387272  1
  Be  Be19  1  0.28274440  0.63694331  0.98612728  1
  Be  Be20  1  0.32053421  0.52258777  0.22676074  1
  Be  Be21  1  0.67946579  0.97610924  0.27323926  1
  Be  Be22  1  0.67946579  0.47741223  0.77323926  1
  Be  Be23  1  0.32053421  0.02389076  0.72676074  1
  Be  Be24  1  0.08596697  0.26398740  0.17703612  1
  Be  Be25  1  0.91403303  0.61805963  0.32296388  1
  Be  Be26  1  0.91403303  0.73601260  0.82296388  1
  Be  Be27  1  0.08596697  0.38194037  0.67703612  1
  B  B28  1  0.27558020  0.40400356  0.13254046  1
  B  B29  1  0.72441980  0.66908447  0.36745954  1
  B  B30  1  0.72441980  0.59599644  0.86745954  1
  B  B31  1  0.27558020  0.33091553  0.63254046  1
