# generated using pymatgen
data_H6He2Li
_symmetry_space_group_name_H-M   'P 1'
_cell_length_a   9.37655571
_cell_length_b   9.37847054
_cell_length_c   5.24713442
_cell_angle_alpha   90.00000000
_cell_angle_beta   90.00084106
_cell_angle_gamma   120.00675557
_symmetry_Int_Tables_number   1
_chemical_formula_structural   H6He2Li
_chemical_formula_sum   'H18 He6 Li3'
_cell_volume   399.57527821
_cell_formula_units_Z   3
loop_
 _symmetry_equiv_pos_site_id
 _symmetry_equiv_pos_as_xyz
  1  'x, y, z'
loop_
 _atom_site_type_symbol
 _atom_site_label
 _atom_site_symmetry_multiplicity
 _atom_site_fract_x
 _atom_site_fract_y
 _atom_site_fract_z
 _atom_site_occupancy
  H  H0  1  0.10806449  0.19500038  0.20683295  1
  H  H1  1  0.89193551  0.08693589  0.79316705  1
  H  H2  1  0.80685187  0.91612340  0.20759387  1
  H  H3  1  0.19314813  0.10927154  0.79240613  1
  H  H4  1  0.08574482  0.89370971  0.20665891  1
  H  H5  1  0.91425518  0.80796489  0.79334109  1
  H  H6  1  0.14160091  0.54888604  0.28559545  1
  H  H7  1  0.85839909  0.40728513  0.71440455  1
  H  H8  1  0.45287948  0.59533058  0.28591839  1
  H  H9  1  0.54712052  0.14245110  0.71408161  1
  H  H10  1  0.40625503  0.86012801  0.28523647  1
  H  H11  1  0.59374497  0.45387298  0.71476353  1
  H  H12  1  0.25240657  0.47508336  0.70133905  1
  H  H13  1  0.74759343  0.22267678  0.29866095  1
  H  H14  1  0.22129774  0.74930936  0.70093950  1
  H  H15  1  0.77870226  0.52801162  0.29906050  1
  H  H16  1  0.52705982  0.78071280  0.70089176  1
  H  H17  1  0.47294018  0.25365298  0.29910824  1
  He  He18  1  0.62558298  0.00200481  0.99998717  1
  He  He19  1  0.37441702  0.37642183  0.00001283  1
  He  He20  1  0.00000000  0.62644188  0.00000000  1
  He  He21  1  0.28865064  0.00112991  0.49995086  1
  He  He22  1  0.71134936  0.71247926  0.50004914  1
  He  He23  1  0.00000000  0.29027122  0.50000000  1
  Li  Li24  1  -0.00000000  0.00133356  -0.00000000  1
  Li  Li25  1  0.33367776  0.66834437  0.49355051  1
  Li  Li26  1  0.66632224  0.33466662  0.50644949  1
