# generated using pymatgen
data_HHeLi4Be
_symmetry_space_group_name_H-M   'P 1'
_cell_length_a   5.29442304
_cell_length_b   8.66719214
_cell_length_c   12.62025652
_cell_angle_alpha   90.08924397
_cell_angle_beta   92.87344127
_cell_angle_gamma   90.04733364
_symmetry_Int_Tables_number   1
_chemical_formula_structural   HHeLi4Be
_chemical_formula_sum   'H4 He4 Li16 Be4'
_cell_volume   578.38651730
_cell_formula_units_Z   4
loop_
 _symmetry_equiv_pos_site_id
 _symmetry_equiv_pos_as_xyz
  1  'x, y, z'
loop_
 _atom_site_type_symbol
 _atom_site_label
 _atom_site_symmetry_multiplicity
 _atom_site_fract_x
 _atom_site_fract_y
 _atom_site_fract_z
 _atom_site_occupancy
  H  H0  1  0.97140080  0.69129007  0.77625964  1
  H  H1  1  0.03586287  0.30855462  0.27724995  1
  H  H2  1  0.53743585  0.19153154  0.77772386  1
  H  H3  1  0.46951439  0.80862343  0.27604118  1
  He  He4  1  0.51959389  0.86523055  0.56119511  1
  He  He5  1  0.44098243  0.13817433  0.05881559  1
  He  He6  1  0.94320786  0.36240950  0.55909819  1
  He  He7  1  0.01720267  0.63455574  0.06079149  1
  Li  Li8  1  0.97091867  0.84669141  0.87311396  1
  Li  Li9  1  0.05830595  0.15257146  0.37322003  1
  Li  Li10  1  0.56017202  0.34826015  0.87341039  1
  Li  Li11  1  0.46884276  0.65342067  0.37285809  1
  Li  Li12  1  0.30711519  0.05504035  0.80180793  1
  Li  Li13  1  0.70201341  0.94692081  0.29836757  1
  Li  Li14  1  0.20404696  0.55336350  0.79799706  1
  Li  Li15  1  0.80592980  0.44505728  0.30101824  1
  Li  Li16  1  0.81886111  0.10068637  0.74970252  1
  Li  Li17  1  0.17960812  0.89810714  0.24949790  1
  Li  Li18  1  0.68188574  0.60146531  0.74930785  1
  Li  Li19  1  0.31747560  0.39915255  0.24902345  1
  Li  Li20  1  0.03942352  0.83997839  0.68042978  1
  Li  Li21  1  0.94931734  0.16074195  0.17994502  1
  Li  Li22  1  0.45150623  0.33845699  0.68009662  1
  Li  Li23  1  0.53722916  0.65974292  0.18020276  1
  Be  Be24  1  0.03546515  0.97204868  0.77822730  1
  Be  Be25  1  0.97094749  0.02832587  0.27730954  1
  Be  Be26  1  0.47269116  0.47160478  0.77741477  1
  Be  Be27  1  0.53404387  0.52799364  0.27787420  1
