# generated using pymatgen
data_HHeLi2
_symmetry_space_group_name_H-M   'P 1'
_cell_length_a   6.06719230
_cell_length_b   6.06719230
_cell_length_c   8.12675618
_cell_angle_alpha   90.00000000
_cell_angle_beta   90.00000000
_cell_angle_gamma   120.00000000
_symmetry_Int_Tables_number   1
_chemical_formula_structural   HHeLi2
_chemical_formula_sum   'H3 He3 Li6'
_cell_volume   259.07373214
_cell_formula_units_Z   3
loop_
 _symmetry_equiv_pos_site_id
 _symmetry_equiv_pos_as_xyz
  1  'x, y, z'
loop_
 _atom_site_type_symbol
 _atom_site_label
 _atom_site_symmetry_multiplicity
 _atom_site_fract_x
 _atom_site_fract_y
 _atom_site_fract_z
 _atom_site_occupancy
  H  H0  1  0.30752842  0.30752842  0.00000000  1
  H  H1  1  0.69247158  0.00000000  0.33333333  1
  H  H2  1  0.00000000  0.69247158  0.66666667  1
  He  He3  1  0.31337340  0.31337340  0.50000000  1
  He  He4  1  0.68662660  0.00000000  0.83333333  1
  He  He5  1  0.00000000  0.68662660  0.16666667  1
  Li  Li6  1  0.37781338  0.47418270  0.61680061  1
  Li  Li7  1  0.52581730  0.90363068  0.95013394  1
  Li  Li8  1  0.09636932  0.62218662  0.28346727  1
  Li  Li9  1  0.47418270  0.37781338  0.38319939  1
  Li  Li10  1  0.90363068  0.52581730  0.04986606  1
  Li  Li11  1  0.62218662  0.09636932  0.71653273  1
