# generated using pymatgen
data_HHe(Li3Be)2
_symmetry_space_group_name_H-M   'P 1'
_cell_length_a   6.70382840
_cell_length_b   6.70382840
_cell_length_c   5.34198859
_cell_angle_alpha   77.66681684
_cell_angle_beta   77.66681684
_cell_angle_gamma   84.62701817
_symmetry_Int_Tables_number   1
_chemical_formula_structural   HHe(Li3Be)2
_chemical_formula_sum   'H2 He2 Li12 Be4'
_cell_volume   228.83276432
_cell_formula_units_Z   2
loop_
 _symmetry_equiv_pos_site_id
 _symmetry_equiv_pos_as_xyz
  1  'x, y, z'
loop_
 _atom_site_type_symbol
 _atom_site_label
 _atom_site_symmetry_multiplicity
 _atom_site_fract_x
 _atom_site_fract_y
 _atom_site_fract_z
 _atom_site_occupancy
  H  H0  1  0.29744824  0.70255176  0.75000000  1
  H  H1  1  0.70255176  0.29744824  0.25000000  1
  He  He2  1  0.90767888  0.09232112  0.75000000  1
  He  He3  1  0.09232112  0.90767888  0.25000000  1
  Li  Li4  1  0.20305691  0.02779846  0.85641236  1
  Li  Li5  1  0.97220154  0.79694309  0.64358764  1
  Li  Li6  1  0.79694309  0.97220154  0.14358764  1
  Li  Li7  1  0.02779846  0.20305691  0.35641236  1
  Li  Li8  1  0.61215009  0.11254555  0.68215862  1
  Li  Li9  1  0.88745445  0.38784991  0.81784138  1
  Li  Li10  1  0.38784991  0.88745445  0.31784138  1
  Li  Li11  1  0.11254555  0.61215009  0.18215862  1
  Li  Li12  1  0.36148159  0.33786635  0.99085631  1
  Li  Li13  1  0.66213365  0.63851841  0.50914369  1
  Li  Li14  1  0.63851841  0.66213365  0.00914369  1
  Li  Li15  1  0.33786635  0.36148159  0.49085631  1
  Be  Be16  1  0.37922568  0.19305815  0.76450167  1
  Be  Be17  1  0.80694185  0.62077432  0.73549833  1
  Be  Be18  1  0.62077432  0.80694185  0.23549833  1
  Be  Be19  1  0.19305815  0.37922568  0.26450167  1
