# generated using pymatgen
data_HHeLi2
_symmetry_space_group_name_H-M   'P 1'
_cell_length_a   6.52354194
_cell_length_b   6.52354194
_cell_length_c   6.52354194
_cell_angle_alpha   131.40711483
_cell_angle_beta   131.40711483
_cell_angle_gamma   71.16705199
_symmetry_Int_Tables_number   1
_chemical_formula_structural   HHeLi2
_chemical_formula_sum   'H2 He2 Li4'
_cell_volume   152.89547905
_cell_formula_units_Z   2
loop_
 _symmetry_equiv_pos_site_id
 _symmetry_equiv_pos_as_xyz
  1  'x, y, z'
loop_
 _atom_site_type_symbol
 _atom_site_label
 _atom_site_symmetry_multiplicity
 _atom_site_fract_x
 _atom_site_fract_y
 _atom_site_fract_z
 _atom_site_occupancy
  H  H0  1  -0.00000000  -0.00000000  -0.00000000  1
  H  H1  1  0.25000000  0.75000000  0.50000000  1
  He  He2  1  0.50000000  0.50000000  -0.00000000  1
  He  He3  1  0.75000000  0.25000000  0.50000000  1
  Li  Li4  1  0.12500000  0.62250347  0.99750347  1
  Li  Li5  1  0.62500000  0.12749653  0.00249653  1
  Li  Li6  1  0.87250347  0.87500000  0.49750347  1
  Li  Li7  1  0.37749653  0.37500000  0.50249653  1
