# generated using pymatgen
data_HHe2
_symmetry_space_group_name_H-M   'P 1'
_cell_length_a   4.83362040
_cell_length_b   5.81998350
_cell_length_c   7.54563174
_cell_angle_alpha   67.42120072
_cell_angle_beta   90.00000000
_cell_angle_gamma   90.00000000
_symmetry_Int_Tables_number   1
_chemical_formula_structural   HHe2
_chemical_formula_sum   'H4 He8'
_cell_volume   196.00058139
_cell_formula_units_Z   4
loop_
 _symmetry_equiv_pos_site_id
 _symmetry_equiv_pos_as_xyz
  1  'x, y, z'
loop_
 _atom_site_type_symbol
 _atom_site_label
 _atom_site_symmetry_multiplicity
 _atom_site_fract_x
 _atom_site_fract_y
 _atom_site_fract_z
 _atom_site_occupancy
  H  H0  1  0.53851538  0.27260274  0.58362781  1
  H  H1  1  0.03851538  0.22739726  0.91637219  1
  H  H2  1  0.46148462  0.72739726  0.41637219  1
  H  H3  1  0.96148462  0.77260274  0.08362781  1
  He  He4  1  0.22234110  0.45065468  0.30070945  1
  He  He5  1  0.72234110  0.04934532  0.19929055  1
  He  He6  1  0.77765890  0.54934532  0.69929055  1
  He  He7  1  0.27765890  0.95065468  0.80070945  1
  He  He8  1  0.88557212  0.17403102  0.41966856  1
  He  He9  1  0.38557212  0.32596898  0.08033144  1
  He  He10  1  0.11442788  0.82596898  0.58033144  1
  He  He11  1  0.61442788  0.67403102  0.91966856  1
