# generated using pymatgen
data_H6HeLi
_symmetry_space_group_name_H-M   'P 1'
_cell_length_a   7.85036379
_cell_length_b   7.85036379
_cell_length_c   7.85036379
_cell_angle_alpha   90.00000000
_cell_angle_beta   90.00000000
_cell_angle_gamma   90.00000000
_symmetry_Int_Tables_number   1
_chemical_formula_structural   H6HeLi
_chemical_formula_sum   'H24 He4 Li4'
_cell_volume   483.80388090
_cell_formula_units_Z   4
loop_
 _symmetry_equiv_pos_site_id
 _symmetry_equiv_pos_as_xyz
  1  'x, y, z'
loop_
 _atom_site_type_symbol
 _atom_site_label
 _atom_site_symmetry_multiplicity
 _atom_site_fract_x
 _atom_site_fract_y
 _atom_site_fract_z
 _atom_site_occupancy
  H  H0  1  0.12054229  0.15650292  0.93211157  1
  H  H1  1  0.37945771  0.84349708  0.43211157  1
  H  H2  1  0.87945771  0.65650292  0.56788843  1
  H  H3  1  0.62054229  0.34349708  0.06788843  1
  H  H4  1  0.93211157  0.12054229  0.15650292  1
  H  H5  1  0.43211157  0.37945771  0.84349708  1
  H  H6  1  0.56788843  0.87945771  0.65650292  1
  H  H7  1  0.06788843  0.62054229  0.34349708  1
  H  H8  1  0.15650292  0.93211157  0.12054229  1
  H  H9  1  0.84349708  0.43211157  0.37945771  1
  H  H10  1  0.65650292  0.56788843  0.87945771  1
  H  H11  1  0.34349708  0.06788843  0.62054229  1
  H  H12  1  0.87945771  0.84349708  0.06788843  1
  H  H13  1  0.62054229  0.15650292  0.56788843  1
  H  H14  1  0.12054229  0.34349708  0.43211157  1
  H  H15  1  0.37945771  0.65650292  0.93211157  1
  H  H16  1  0.06788843  0.87945771  0.84349708  1
  H  H17  1  0.56788843  0.62054229  0.15650292  1
  H  H18  1  0.43211157  0.12054229  0.34349708  1
  H  H19  1  0.93211157  0.37945771  0.65650292  1
  H  H20  1  0.84349708  0.06788843  0.87945771  1
  H  H21  1  0.15650292  0.56788843  0.62054229  1
  H  H22  1  0.34349708  0.43211157  0.12054229  1
  H  H23  1  0.65650292  0.93211157  0.37945771  1
  He  He24  1  0.50000000  0.50000000  0.50000000  1
  He  He25  1  0.00000000  0.50000000  0.00000000  1
  He  He26  1  0.50000000  0.00000000  0.00000000  1
  He  He27  1  -0.00000000  0.00000000  0.50000000  1
  Li  Li28  1  -0.00000000  -0.00000000  0.00000000  1
  Li  Li29  1  0.50000000  -0.00000000  0.50000000  1
  Li  Li30  1  0.00000000  0.50000000  0.50000000  1
  Li  Li31  1  0.50000000  0.50000000  0.00000000  1
