# generated using pymatgen
data_HHe5Li2
_symmetry_space_group_name_H-M   'P 1'
_cell_length_a   6.38204677
_cell_length_b   6.38204677
_cell_length_c   7.57980583
_cell_angle_alpha   90.00000000
_cell_angle_beta   90.00000000
_cell_angle_gamma   89.99688556
_symmetry_Int_Tables_number   1
_chemical_formula_structural   HHe5Li2
_chemical_formula_sum   'H2 He10 Li4'
_cell_volume   308.72944034
_cell_formula_units_Z   2
loop_
 _symmetry_equiv_pos_site_id
 _symmetry_equiv_pos_as_xyz
  1  'x, y, z'
loop_
 _atom_site_type_symbol
 _atom_site_label
 _atom_site_symmetry_multiplicity
 _atom_site_fract_x
 _atom_site_fract_y
 _atom_site_fract_z
 _atom_site_occupancy
  H  H0  1  -0.00000000  -0.00000000  -0.00000000  1
  H  H1  1  0.00000000  -0.00000000  0.50000000  1
  He  He2  1  0.79867033  0.20132967  -0.00000000  1
  He  He3  1  0.20132967  0.79867033  0.50000000  1
  He  He4  1  0.20132967  0.79867033  0.00000000  1
  He  He5  1  0.79867033  0.20132967  0.50000000  1
  He  He6  1  0.79862848  0.79862848  0.99456826  1
  He  He7  1  0.20137152  0.20137152  0.49456826  1
  He  He8  1  0.79862848  0.79862848  0.50543174  1
  He  He9  1  0.20137152  0.20137152  0.00543174  1
  He  He10  1  0.99526701  0.99526701  0.25000000  1
  He  He11  1  0.00473299  0.00473299  0.75000000  1
  Li  Li12  1  0.49456464  0.98456016  0.25000000  1
  Li  Li13  1  0.50543536  0.01543984  0.75000000  1
  Li  Li14  1  0.98456016  0.49456464  0.25000000  1
  Li  Li15  1  0.01543984  0.50543536  0.75000000  1
