# generated using pymatgen
data_HHeLi5Be
_symmetry_space_group_name_H-M   'P 1'
_cell_length_a   6.75849315
_cell_length_b   11.17936581
_cell_length_c   13.62338642
_cell_angle_alpha   90.00000000
_cell_angle_beta   90.00000000
_cell_angle_gamma   90.00000000
_symmetry_Int_Tables_number   1
_chemical_formula_structural   HHeLi5Be
_chemical_formula_sum   'H8 He8 Li40 Be8'
_cell_volume   1029.32405157
_cell_formula_units_Z   8
loop_
 _symmetry_equiv_pos_site_id
 _symmetry_equiv_pos_as_xyz
  1  'x, y, z'
loop_
 _atom_site_type_symbol
 _atom_site_label
 _atom_site_symmetry_multiplicity
 _atom_site_fract_x
 _atom_site_fract_y
 _atom_site_fract_z
 _atom_site_occupancy
  H  H0  1  0.67781210  0.25200330  0.49639488  1
  H  H1  1  0.32218790  0.75200330  0.50360512  1
  H  H2  1  0.82218790  0.25200330  0.99639488  1
  H  H3  1  0.17781210  0.75200330  0.00360512  1
  H  H4  1  0.49326095  0.50236641  0.18222291  1
  H  H5  1  0.50673905  0.00236641  0.81777709  1
  H  H6  1  0.00673905  0.50236641  0.68222291  1
  H  H7  1  0.99326095  0.00236641  0.31777709  1
  He  He8  1  0.22665126  0.30133814  0.37422528  1
  He  He9  1  0.77334874  0.80133814  0.62577472  1
  He  He10  1  0.27334874  0.30133814  0.87422528  1
  He  He11  1  0.72665126  0.80133814  0.12577472  1
  He  He12  1  0.29183184  0.06445878  0.11030104  1
  He  He13  1  0.70816816  0.56445878  0.88969896  1
  He  He14  1  0.20816816  0.06445878  0.61030104  1
  He  He15  1  0.79183184  0.56445878  0.38969896  1
  Li  Li16  1  0.50466667  0.13465398  0.48534414  1
  Li  Li17  1  0.49533333  0.63465398  0.51465586  1
  Li  Li18  1  0.99533333  0.13465398  0.98534414  1
  Li  Li19  1  0.00466667  0.63465398  0.01465586  1
  Li  Li20  1  0.03750076  0.88608919  0.99502998  1
  Li  Li21  1  0.96249924  0.38608919  0.00497002  1
  Li  Li22  1  0.46249924  0.88608919  0.49502998  1
  Li  Li23  1  0.53750076  0.38608919  0.50497002  1
  Li  Li24  1  0.82139713  0.27011587  0.38831231  1
  Li  Li25  1  0.17860287  0.77011587  0.61168769  1
  Li  Li26  1  0.67860287  0.27011587  0.88831231  1
  Li  Li27  1  0.32139713  0.77011587  0.11168769  1
  Li  Li28  1  0.32791156  0.72904003  0.89839366  1
  Li  Li29  1  0.67208844  0.22904003  0.10160634  1
  Li  Li30  1  0.17208844  0.72904003  0.39839366  1
  Li  Li31  1  0.82791156  0.22904003  0.60160634  1
  Li  Li32  1  0.69987917  0.54029058  0.10916167  1
  Li  Li33  1  0.30012083  0.04029058  0.89083833  1
  Li  Li34  1  0.80012083  0.54029058  0.60916167  1
  Li  Li35  1  0.19987917  0.04029058  0.39083833  1
  Li  Li36  1  0.21474488  0.47317750  0.60762665  1
  Li  Li37  1  0.78525512  0.97317750  0.39237335  1
  Li  Li38  1  0.28525512  0.47317750  0.10762665  1
  Li  Li39  1  0.71474488  0.97317750  0.89237335  1
  Li  Li40  1  0.45759883  0.62507003  0.26398583  1
  Li  Li41  1  0.54240117  0.12507003  0.73601417  1
  Li  Li42  1  0.04240117  0.62507003  0.76398583  1
  Li  Li43  1  0.95759883  0.12507003  0.23601417  1
  Li  Li44  1  0.96482171  0.37655978  0.75883698  1
  Li  Li45  1  0.03517829  0.87655978  0.24116302  1
  Li  Li46  1  0.53517829  0.37655978  0.25883698  1
  Li  Li47  1  0.46482171  0.87655978  0.74116302  1
  Li  Li48  1  0.04284691  0.62611303  0.21934291  1
  Li  Li49  1  0.95715309  0.12611303  0.78065709  1
  Li  Li50  1  0.45715309  0.62611303  0.71934291  1
  Li  Li51  1  0.54284691  0.12611303  0.28065709  1
  Li  Li52  1  0.56153008  0.37664083  0.71307016  1
  Li  Li53  1  0.43846992  0.87664083  0.28692984  1
  Li  Li54  1  0.93846992  0.37664083  0.21307016  1
  Li  Li55  1  0.06153008  0.87664083  0.78692984  1
  Be  Be56  1  0.74111177  0.24727446  0.24429192  1
  Be  Be57  1  0.25888823  0.74727446  0.75570808  1
  Be  Be58  1  0.75888823  0.24727446  0.74429192  1
  Be  Be59  1  0.24111177  0.74727446  0.25570808  1
  Be  Be60  1  0.49542220  0.00095809  0.38376828  1
  Be  Be61  1  0.50457780  0.50095809  0.61623172  1
  Be  Be62  1  0.00457780  0.00095809  0.88376828  1
  Be  Be63  1  0.99542220  0.50095809  0.11623172  1
