# generated using pymatgen
data_HHe4Li2Be16B
_symmetry_space_group_name_H-M   'P 1'
_cell_length_a   7.14890989
_cell_length_b   7.14890989
_cell_length_c   19.99681918
_cell_angle_alpha   88.93201403
_cell_angle_beta   88.93201403
_cell_angle_gamma   135.54091136
_symmetry_Int_Tables_number   1
_chemical_formula_structural   HHe4Li2Be16B
_chemical_formula_sum   'H2 He8 Li4 Be32 B2'
_cell_volume   714.92232238
_cell_formula_units_Z   2
loop_
 _symmetry_equiv_pos_site_id
 _symmetry_equiv_pos_as_xyz
  1  'x, y, z'
loop_
 _atom_site_type_symbol
 _atom_site_label
 _atom_site_symmetry_multiplicity
 _atom_site_fract_x
 _atom_site_fract_y
 _atom_site_fract_z
 _atom_site_occupancy
  H  H0  1  0.68753179  0.31246821  0.75000000  1
  H  H1  1  0.31246821  0.68753179  0.25000000  1
  He  He2  1  0.26530962  0.75277357  0.85164972  1
  He  He3  1  0.24722643  0.73469038  0.64835028  1
  He  He4  1  0.73469038  0.24722643  0.14835028  1
  He  He5  1  0.75277357  0.26530962  0.35164972  1
  He  He6  1  0.57506585  0.44927014  0.90837432  1
  He  He7  1  0.55072986  0.42493415  0.59162568  1
  He  He8  1  0.42493415  0.55072986  0.09162568  1
  He  He9  1  0.44927014  0.57506585  0.40837432  1
  Li  Li10  1  0.85237578  0.14460969  0.96614006  1
  Li  Li11  1  0.85539031  0.14762422  0.53385994  1
  Li  Li12  1  0.14762422  0.85539031  0.03385994  1
  Li  Li13  1  0.14460969  0.85237578  0.46614006  1
  Be  Be14  1  0.10653391  0.41334378  0.86701519  1
  Be  Be15  1  0.58665622  0.89346609  0.63298481  1
  Be  Be16  1  0.89346609  0.58665622  0.13298481  1
  Be  Be17  1  0.41334378  0.10653391  0.36701519  1
  Be  Be18  1  0.01266486  0.72718653  0.82736608  1
  Be  Be19  1  0.27281347  0.98733514  0.67263392  1
  Be  Be20  1  0.98733514  0.27281347  0.17263392  1
  Be  Be21  1  0.72718653  0.01266486  0.32736608  1
  Be  Be22  1  0.52215401  0.93633596  0.78802351  1
  Be  Be23  1  0.06366404  0.47784599  0.71197649  1
  Be  Be24  1  0.47784599  0.06366404  0.21197649  1
  Be  Be25  1  0.93633596  0.52215401  0.28802351  1
  Be  Be26  1  0.40722158  0.92756232  0.93175917  1
  Be  Be27  1  0.07243768  0.59277842  0.56824083  1
  Be  Be28  1  0.59277842  0.07243768  0.06824083  1
  Be  Be29  1  0.92756232  0.40722158  0.43175917  1
  Be  Be30  1  0.26195737  0.22121553  0.96035455  1
  Be  Be31  1  0.77878447  0.73804263  0.53964545  1
  Be  Be32  1  0.73804263  0.77878447  0.03964545  1
  Be  Be33  1  0.22121553  0.26195737  0.46035455  1
  Be  Be34  1  0.68066599  0.76297402  0.89902181  1
  Be  Be35  1  0.23702598  0.31933401  0.60097819  1
  Be  Be36  1  0.31933401  0.23702598  0.10097819  1
  Be  Be37  1  0.76297402  0.68066599  0.39902181  1
  Be  Be38  1  0.48978595  0.30086371  0.83034416  1
  Be  Be39  1  0.69913629  0.51021405  0.66965584  1
  Be  Be40  1  0.51021405  0.69913629  0.16965584  1
  Be  Be41  1  0.30086371  0.48978595  0.33034416  1
  Be  Be42  1  0.81634408  0.48405675  0.95711642  1
  Be  Be43  1  0.51594325  0.18365592  0.54288358  1
  Be  Be44  1  0.18365592  0.51594325  0.04288358  1
  Be  Be45  1  0.48405675  0.81634408  0.45711642  1
  B  B46  1  0.96940717  0.03059283  0.75000000  1
  B  B47  1  0.03059283  0.96940717  0.25000000  1
