# generated using pymatgen
data_HHe13
_symmetry_space_group_name_H-M   'P 1'
_cell_length_a   8.62416576
_cell_length_b   8.62416576
_cell_length_c   8.62416576
_cell_angle_alpha   60.00000000
_cell_angle_beta   60.00000000
_cell_angle_gamma   60.00000000
_symmetry_Int_Tables_number   1
_chemical_formula_structural   HHe13
_chemical_formula_sum   'H2 He26'
_cell_volume   453.56160937
_cell_formula_units_Z   2
loop_
 _symmetry_equiv_pos_site_id
 _symmetry_equiv_pos_as_xyz
  1  'x, y, z'
loop_
 _atom_site_type_symbol
 _atom_site_label
 _atom_site_symmetry_multiplicity
 _atom_site_fract_x
 _atom_site_fract_y
 _atom_site_fract_z
 _atom_site_occupancy
  H  H0  1  0.75000000  0.75000000  0.75000000  1
  H  H1  1  0.25000000  0.25000000  0.25000000  1
  He  He2  1  0.00000000  0.00000000  -0.00000000  1
  He  He3  1  0.50000000  0.50000000  0.50000000  1
  He  He4  1  0.70106234  0.06136672  0.93863328  1
  He  He5  1  0.93863328  0.29893766  0.70106234  1
  He  He6  1  0.06136672  0.70106234  0.29893766  1
  He  He7  1  0.29893766  0.93863328  0.06136672  1
  He  He8  1  0.06136672  0.93863328  0.70106234  1
  He  He9  1  0.29893766  0.70106234  0.93863328  1
  He  He10  1  0.70106234  0.29893766  0.06136672  1
  He  He11  1  0.93863328  0.06136672  0.29893766  1
  He  He12  1  0.93863328  0.70106234  0.06136672  1
  He  He13  1  0.70106234  0.93863328  0.29893766  1
  He  He14  1  0.29893766  0.06136672  0.70106234  1
  He  He15  1  0.06136672  0.29893766  0.93863328  1
  He  He16  1  0.79893766  0.20106234  0.56136672  1
  He  He17  1  0.56136672  0.43863328  0.79893766  1
  He  He18  1  0.43863328  0.56136672  0.20106234  1
  He  He19  1  0.20106234  0.79893766  0.43863328  1
  He  He20  1  0.43863328  0.20106234  0.79893766  1
  He  He21  1  0.20106234  0.43863328  0.56136672  1
  He  He22  1  0.79893766  0.56136672  0.43863328  1
  He  He23  1  0.56136672  0.79893766  0.20106234  1
  He  He24  1  0.56136672  0.20106234  0.43863328  1
  He  He25  1  0.79893766  0.43863328  0.20106234  1
  He  He26  1  0.20106234  0.56136672  0.79893766  1
  He  He27  1  0.43863328  0.79893766  0.56136672  1
