# generated using pymatgen
data_HHeLi6
_symmetry_space_group_name_H-M   'P 1'
_cell_length_a   9.26283115
_cell_length_b   6.08930596
_cell_length_c   9.34774728
_cell_angle_alpha   81.45628102
_cell_angle_beta   90.00000000
_cell_angle_gamma   90.00000000
_symmetry_Int_Tables_number   1
_chemical_formula_structural   HHeLi6
_chemical_formula_sum   'H4 He4 Li24'
_cell_volume   521.40129828
_cell_formula_units_Z   4
loop_
 _symmetry_equiv_pos_site_id
 _symmetry_equiv_pos_as_xyz
  1  'x, y, z'
loop_
 _atom_site_type_symbol
 _atom_site_label
 _atom_site_symmetry_multiplicity
 _atom_site_fract_x
 _atom_site_fract_y
 _atom_site_fract_z
 _atom_site_occupancy
  H  H0  1  0.00434494  0.26033341  0.17270312  1
  H  H1  1  0.50434494  0.23966659  0.32729688  1
  H  H2  1  0.99565506  0.73966659  0.82729688  1
  H  H3  1  0.49565506  0.76033341  0.67270312  1
  He  He4  1  0.78989049  0.29396334  0.88936839  1
  He  He5  1  0.28989049  0.20603666  0.61063161  1
  He  He6  1  0.21010951  0.70603666  0.11063161  1
  He  He7  1  0.71010951  0.79396334  0.38936839  1
  Li  Li8  1  0.66802298  0.12074830  0.96210752  1
  Li  Li9  1  0.16802298  0.37925170  0.53789248  1
  Li  Li10  1  0.33197702  0.87925170  0.03789248  1
  Li  Li11  1  0.83197702  0.62074830  0.46210752  1
  Li  Li12  1  0.73764932  0.28503324  0.72455555  1
  Li  Li13  1  0.23764932  0.21496676  0.77544445  1
  Li  Li14  1  0.26235068  0.71496676  0.27544445  1
  Li  Li15  1  0.76235068  0.78503324  0.22455555  1
  Li  Li16  1  0.99786389  0.10151460  0.29351960  1
  Li  Li17  1  0.49786389  0.39848540  0.20648040  1
  Li  Li18  1  0.00213611  0.89848540  0.70648040  1
  Li  Li19  1  0.50213611  0.60151460  0.79351960  1
  Li  Li20  1  0.04693634  0.47299734  0.21643334  1
  Li  Li21  1  0.54693634  0.02700266  0.28356666  1
  Li  Li22  1  0.95306366  0.52700266  0.78356666  1
  Li  Li23  1  0.45306366  0.97299734  0.71643334  1
  Li  Li24  1  0.09524741  0.21029629  0.06516024  1
  Li  Li25  1  0.59524741  0.28970371  0.43483976  1
  Li  Li26  1  0.90475259  0.78970371  0.93483976  1
  Li  Li27  1  0.40475259  0.71029629  0.56516024  1
  Li  Li28  1  0.85739675  0.30033973  0.11457079  1
  Li  Li29  1  0.35739675  0.19966027  0.38542921  1
  Li  Li30  1  0.14260325  0.69966027  0.88542921  1
  Li  Li31  1  0.64260325  0.80033973  0.61457079  1
