# generated using pymatgen
data_H3He2
_symmetry_space_group_name_H-M   'P 1'
_cell_length_a   5.55989964
_cell_length_b   5.55989964
_cell_length_c   5.55989964
_cell_angle_alpha   54.78023719
_cell_angle_beta   54.78023719
_cell_angle_gamma   54.78023719
_symmetry_Int_Tables_number   1
_chemical_formula_structural   H3He2
_chemical_formula_sum   'H6 He4'
_cell_volume   106.75785225
_cell_formula_units_Z   2
loop_
 _symmetry_equiv_pos_site_id
 _symmetry_equiv_pos_as_xyz
  1  'x, y, z'
loop_
 _atom_site_type_symbol
 _atom_site_label
 _atom_site_symmetry_multiplicity
 _atom_site_fract_x
 _atom_site_fract_y
 _atom_site_fract_z
 _atom_site_occupancy
  H  H0  1  0.75000000  0.05400800  0.44599200  1
  H  H1  1  0.05400800  0.44599200  0.75000000  1
  H  H2  1  0.44599200  0.75000000  0.05400800  1
  H  H3  1  0.25000000  0.94599200  0.55400800  1
  H  H4  1  0.94599200  0.55400800  0.25000000  1
  H  H5  1  0.55400800  0.25000000  0.94599200  1
  He  He6  1  0.85051573  0.85051573  0.85051573  1
  He  He7  1  0.64948427  0.64948427  0.64948427  1
  He  He8  1  0.14948427  0.14948427  0.14948427  1
  He  He9  1  0.35051573  0.35051573  0.35051573  1
