# generated using pymatgen
data_H2HeLi
_symmetry_space_group_name_H-M   'P 1'
_cell_length_a   6.67264886
_cell_length_b   6.67264886
_cell_length_c   6.94323518
_cell_angle_alpha   90.00000000
_cell_angle_beta   90.00000000
_cell_angle_gamma   90.00000000
_symmetry_Int_Tables_number   1
_chemical_formula_structural   H2HeLi
_chemical_formula_sum   'H16 He8 Li8'
_cell_volume   309.14228906
_cell_formula_units_Z   8
loop_
 _symmetry_equiv_pos_site_id
 _symmetry_equiv_pos_as_xyz
  1  'x, y, z'
loop_
 _atom_site_type_symbol
 _atom_site_label
 _atom_site_symmetry_multiplicity
 _atom_site_fract_x
 _atom_site_fract_y
 _atom_site_fract_z
 _atom_site_occupancy
  H  H0  1  0.09601484  0.59219674  -0.00000000  1
  H  H1  1  0.90398516  0.40780326  0.00000000  1
  H  H2  1  0.40780326  0.09601484  0.50000000  1
  H  H3  1  0.59219674  0.90398516  0.50000000  1
  H  H4  1  0.40398516  0.09219674  -0.00000000  1
  H  H5  1  0.59601484  0.90780326  0.00000000  1
  H  H6  1  0.09219674  0.59601484  0.50000000  1
  H  H7  1  0.90780326  0.40398516  0.50000000  1
  H  H8  1  0.15367178  0.03343772  0.00000000  1
  H  H9  1  0.84632822  0.96656228  -0.00000000  1
  H  H10  1  0.96656228  0.15367178  0.50000000  1
  H  H11  1  0.03343772  0.84632822  0.50000000  1
  H  H12  1  0.34632822  0.53343772  0.00000000  1
  H  H13  1  0.65367178  0.46656228  -0.00000000  1
  H  H14  1  0.53343772  0.65367178  0.50000000  1
  H  H15  1  0.46656228  0.34632822  0.50000000  1
  He  He16  1  0.46017983  0.32160386  -0.00000000  1
  He  He17  1  0.53982017  0.67839614  0.00000000  1
  He  He18  1  0.67839614  0.46017983  0.50000000  1
  He  He19  1  0.32160386  0.53982017  0.50000000  1
  He  He20  1  0.03982017  0.82160386  -0.00000000  1
  He  He21  1  0.96017983  0.17839614  0.00000000  1
  He  He22  1  0.82160386  0.96017983  0.50000000  1
  He  He23  1  0.17839614  0.03982017  0.50000000  1
  Li  Li24  1  0.30814593  0.80814593  0.25000000  1
  Li  Li25  1  0.69185407  0.19185407  0.25000000  1
  Li  Li26  1  0.19185407  0.30814593  0.75000000  1
  Li  Li27  1  0.80814593  0.69185407  0.75000000  1
  Li  Li28  1  0.69185407  0.19185407  0.75000000  1
  Li  Li29  1  0.30814593  0.80814593  0.75000000  1
  Li  Li30  1  0.80814593  0.69185407  0.25000000  1
  Li  Li31  1  0.19185407  0.30814593  0.25000000  1
