# generated using pymatgen
data_HHeLi
_symmetry_space_group_name_H-M   'P 1'
_cell_length_a   6.38652190
_cell_length_b   5.81085618
_cell_length_c   16.41327913
_cell_angle_alpha   90.00000000
_cell_angle_beta   90.00000000
_cell_angle_gamma   90.00000000
_symmetry_Int_Tables_number   1
_chemical_formula_structural   HHeLi
_chemical_formula_sum   'H4 He4 Li4'
_cell_volume   609.11583224
_cell_formula_units_Z   4
loop_
 _symmetry_equiv_pos_site_id
 _symmetry_equiv_pos_as_xyz
  1  'x, y, z'
loop_
 _atom_site_type_symbol
 _atom_site_label
 _atom_site_symmetry_multiplicity
 _atom_site_fract_x
 _atom_site_fract_y
 _atom_site_fract_z
 _atom_site_occupancy
  H  H0  1  0.25000000  0.03152937  0.59855585  1
  H  H1  1  0.75000000  0.96847063  0.40144415  1
  H  H2  1  0.75000000  0.96847063  0.09855585  1
  H  H3  1  0.25000000  0.03152937  0.90144415  1
  He  He4  1  0.25000000  0.52299001  0.09184403  1
  He  He5  1  0.75000000  0.47700999  0.90815597  1
  He  He6  1  0.75000000  0.47700999  0.59184403  1
  He  He7  1  0.25000000  0.52299001  0.40815597  1
  Li  Li8  1  0.25000000  0.13961071  0.08353514  1
  Li  Li9  1  0.75000000  0.86038929  0.91646486  1
  Li  Li10  1  0.75000000  0.86038929  0.58353514  1
  Li  Li11  1  0.25000000  0.13961071  0.41646486  1
