# generated using pymatgen
data_H2He3
_symmetry_space_group_name_H-M   'P 1'
_cell_length_a   7.54539909
_cell_length_b   7.54539909
_cell_length_c   9.09967295
_cell_angle_alpha   80.10489985
_cell_angle_beta   80.10489985
_cell_angle_gamma   28.55772649
_symmetry_Int_Tables_number   1
_chemical_formula_structural   H2He3
_chemical_formula_sum   'H6 He9'
_cell_volume   243.73647755
_cell_formula_units_Z   3
loop_
 _symmetry_equiv_pos_site_id
 _symmetry_equiv_pos_as_xyz
  1  'x, y, z'
loop_
 _atom_site_type_symbol
 _atom_site_label
 _atom_site_symmetry_multiplicity
 _atom_site_fract_x
 _atom_site_fract_y
 _atom_site_fract_z
 _atom_site_occupancy
  H  H0  1  0.63480323  0.63480323  0.51039015  1
  H  H1  1  0.36519677  0.36519677  0.48960985  1
  H  H2  1  0.69074369  0.69074369  0.86187142  1
  H  H3  1  0.30925631  0.30925631  0.13812858  1
  H  H4  1  0.96729303  0.96729303  0.81265525  1
  H  H5  1  0.03270697  0.03270697  0.18734475  1
  He  He6  1  0.12899152  0.12899152  0.71424394  1
  He  He7  1  0.87100848  0.87100848  0.28575606  1
  He  He8  1  0.82469588  0.82469588  0.97333998  1
  He  He9  1  0.17530412  0.17530412  0.02666002  1
  He  He10  1  0.79765854  0.79765854  0.62684373  1
  He  He11  1  0.20234146  0.20234146  0.37315627  1
  He  He12  1  0.47374435  0.47374435  0.65613227  1
  He  He13  1  0.52625565  0.52625565  0.34386773  1
  He  He14  1  0.50000000  0.50000000  -0.00000000  1
