# generated using pymatgen
data_HHe
_symmetry_space_group_name_H-M   'P 1'
_cell_length_a   8.73380664
_cell_length_b   8.73380664
_cell_length_c   8.73380664
_cell_angle_alpha   131.72134676
_cell_angle_beta   99.56443386
_cell_angle_gamma   99.69101807
_symmetry_Int_Tables_number   1
_chemical_formula_structural   HHe
_chemical_formula_sum   'H16 He16'
_cell_volume   453.76892476
_cell_formula_units_Z   16
loop_
 _symmetry_equiv_pos_site_id
 _symmetry_equiv_pos_as_xyz
  1  'x, y, z'
loop_
 _atom_site_type_symbol
 _atom_site_label
 _atom_site_symmetry_multiplicity
 _atom_site_fract_x
 _atom_site_fract_y
 _atom_site_fract_z
 _atom_site_occupancy
  H  H0  1  0.74736971  0.01695454  0.26958482  1
  H  H1  1  0.74736971  0.47778489  0.73041518  1
  H  H2  1  0.49773652  0.01671274  0.01845849  1
  H  H3  1  0.99825424  0.47927803  0.98154151  1
  H  H4  1  0.99825424  0.01671274  0.51897622  1
  H  H5  1  0.49773652  0.47927803  0.48102378  1
  H  H6  1  0.24859049  0.47862564  0.23003515  1
  H  H7  1  0.24859049  0.01855534  0.76996485  1
  H  H8  1  0.00263029  0.27221511  0.26958482  1
  H  H9  1  0.00263029  0.73304546  0.73041518  1
  H  H10  1  0.75174576  0.27072197  0.01845849  1
  H  H11  1  0.25226348  0.73328726  0.98154151  1
  H  H12  1  0.25226348  0.27072197  0.51897622  1
  H  H13  1  0.75174576  0.73328726  0.48102378  1
  H  H14  1  0.50140951  0.73144466  0.23003515  1
  H  H15  1  0.50140951  0.27137436  0.76996485  1
  He  He16  1  0.51897351  0.64412351  0.87485000  1
  He  He17  1  0.76927351  0.64412351  0.12515000  1
  He  He18  1  0.26958143  0.64479651  0.62478491  1
  He  He19  1  0.02001160  0.64479651  0.37521509  1
  He  He20  1  0.24903215  0.37500000  0.87403215  1
  He  He21  1  0.50096785  0.37500000  0.12596785  1
  He  He22  1  0.99977193  0.37500000  0.62477193  1
  He  He23  1  0.75022807  0.37500000  0.37522807  1
  He  He24  1  0.75095572  0.87500000  0.87595572  1
  He  He25  1  -0.00095572  0.87500000  0.12404428  1
  He  He26  1  0.49748128  0.87500000  0.62248128  1
  He  He27  1  0.25251872  0.87500000  0.37751872  1
  He  He28  1  0.98072649  0.10587649  0.87485000  1
  He  He29  1  0.23102649  0.10587649  0.12515000  1
  He  He30  1  0.72998840  0.10520349  0.62478491  1
  He  He31  1  0.48041857  0.10520349  0.37521509  1
