# generated using pymatgen
data_H2He3Li
_symmetry_space_group_name_H-M   'P 1'
_cell_length_a   11.36250682
_cell_length_b   11.36250682
_cell_length_c   12.14429129
_cell_angle_alpha   60.18454885
_cell_angle_beta   60.18454885
_cell_angle_gamma   30.82814106
_symmetry_Int_Tables_number   1
_chemical_formula_structural   H2He3Li
_chemical_formula_sum   'H8 He12 Li4'
_cell_volume   688.38287709
_cell_formula_units_Z   4
loop_
 _symmetry_equiv_pos_site_id
 _symmetry_equiv_pos_as_xyz
  1  'x, y, z'
loop_
 _atom_site_type_symbol
 _atom_site_label
 _atom_site_symmetry_multiplicity
 _atom_site_fract_x
 _atom_site_fract_y
 _atom_site_fract_z
 _atom_site_occupancy
  H  H0  1  0.25892809  0.23747767  0.12418706  1
  H  H1  1  0.76252233  0.74107191  0.37581294  1
  H  H2  1  0.74107191  0.76252233  0.87581294  1
  H  H3  1  0.23747767  0.25892809  0.62418706  1
  H  H4  1  0.60604935  0.53739701  0.30948233  1
  H  H5  1  0.46260299  0.39395065  0.19051767  1
  H  H6  1  0.39395065  0.46260299  0.69051767  1
  H  H7  1  0.53739701  0.60604935  0.80948233  1
  He  He8  1  0.55415463  0.62453271  0.54352201  1
  He  He9  1  0.37546729  0.44584537  0.95647799  1
  He  He10  1  0.44584537  0.37546729  0.45647799  1
  He  He11  1  0.62453271  0.55415463  0.04352201  1
  He  He12  1  0.11823212  0.05141974  0.30585328  1
  He  He13  1  0.94858026  0.88176788  0.19414672  1
  He  He14  1  0.88176788  0.94858026  0.69414672  1
  He  He15  1  0.05141974  0.11823212  0.80585328  1
  He  He16  1  0.24940535  0.23138981  0.38293322  1
  He  He17  1  0.76861019  0.75059465  0.11706678  1
  He  He18  1  0.75059465  0.76861019  0.61706678  1
  He  He19  1  0.23138981  0.24940535  0.88293322  1
  Li  Li20  1  0.15747973  0.05553274  0.49208833  1
  Li  Li21  1  0.94446726  0.84252027  0.00791167  1
  Li  Li22  1  0.84252027  0.94446726  0.50791167  1
  Li  Li23  1  0.05553274  0.15747973  0.99208833  1
