# generated using pymatgen
data_H7He16(Li3Be2)3
_symmetry_space_group_name_H-M   'P 1'
_cell_length_a   8.56479678
_cell_length_b   8.56479678
_cell_length_c   8.56479678
_cell_angle_alpha   60.00000000
_cell_angle_beta   60.00000000
_cell_angle_gamma   60.00000000
_symmetry_Int_Tables_number   1
_chemical_formula_structural   H7He16(Li3Be2)3
_chemical_formula_sum   'H7 He16 Li9 Be6'
_cell_volume   444.25895444
_cell_formula_units_Z   1
loop_
 _symmetry_equiv_pos_site_id
 _symmetry_equiv_pos_as_xyz
  1  'x, y, z'
loop_
 _atom_site_type_symbol
 _atom_site_label
 _atom_site_symmetry_multiplicity
 _atom_site_fract_x
 _atom_site_fract_y
 _atom_site_fract_z
 _atom_site_occupancy
  H  H0  1  0.50000000  0.50000000  -0.00000000  1
  H  H1  1  0.00000000  0.00000000  0.50000000  1
  H  H2  1  0.00000000  0.50000000  0.50000000  1
  H  H3  1  0.50000000  -0.00000000  0.00000000  1
  H  H4  1  0.00000000  0.50000000  -0.00000000  1
  H  H5  1  0.50000000  0.00000000  0.50000000  1
  H  H6  1  0.50000000  0.50000000  0.50000000  1
  He  He7  1  0.17539757  0.47380729  0.17539757  1
  He  He8  1  0.17539757  0.17539757  0.17539757  1
  He  He9  1  0.17539757  0.17539757  0.47380729  1
  He  He10  1  0.47380729  0.17539757  0.17539757  1
  He  He11  1  0.82460243  0.82460243  0.82460243  1
  He  He12  1  0.82460243  0.52619271  0.82460243  1
  He  He13  1  0.82460243  0.82460243  0.52619271  1
  He  He14  1  0.52619271  0.82460243  0.82460243  1
  He  He15  1  0.38037916  0.85886252  0.38037916  1
  He  He16  1  0.38037916  0.38037916  0.38037916  1
  He  He17  1  0.38037916  0.38037916  0.85886252  1
  He  He18  1  0.85886252  0.38037916  0.38037916  1
  He  He19  1  0.61962084  0.61962084  0.61962084  1
  He  He20  1  0.61962084  0.14113748  0.61962084  1
  He  He21  1  0.61962084  0.61962084  0.14113748  1
  He  He22  1  0.14113748  0.61962084  0.61962084  1
  Li  Li23  1  -0.00000000  0.00000000  0.00000000  1
  Li  Li24  1  0.09403477  0.71789570  0.09403477  1
  Li  Li25  1  0.09403477  0.09403477  0.09403477  1
  Li  Li26  1  0.09403477  0.09403477  0.71789570  1
  Li  Li27  1  0.71789570  0.09403477  0.09403477  1
  Li  Li28  1  0.90596523  0.90596523  0.90596523  1
  Li  Li29  1  0.90596523  0.28210430  0.90596523  1
  Li  Li30  1  0.90596523  0.90596523  0.28210430  1
  Li  Li31  1  0.28210430  0.90596523  0.90596523  1
  Be  Be32  1  0.79852697  0.79852697  0.20147303  1
  Be  Be33  1  0.20147303  0.20147303  0.79852697  1
  Be  Be34  1  0.20147303  0.79852697  0.79852697  1
  Be  Be35  1  0.79852697  0.20147303  0.20147303  1
  Be  Be36  1  0.20147303  0.79852697  0.20147303  1
  Be  Be37  1  0.79852697  0.20147303  0.79852697  1
