# generated using pymatgen
data_H3HeLi
_symmetry_space_group_name_H-M   'P 1'
_cell_length_a   4.49028203
_cell_length_b   5.59723151
_cell_length_c   12.81598575
_cell_angle_alpha   90.00000000
_cell_angle_beta   90.00000000
_cell_angle_gamma   90.00000000
_symmetry_Int_Tables_number   1
_chemical_formula_structural   H3HeLi
_chemical_formula_sum   'H12 He4 Li4'
_cell_volume   322.10606721
_cell_formula_units_Z   4
loop_
 _symmetry_equiv_pos_site_id
 _symmetry_equiv_pos_as_xyz
  1  'x, y, z'
loop_
 _atom_site_type_symbol
 _atom_site_label
 _atom_site_symmetry_multiplicity
 _atom_site_fract_x
 _atom_site_fract_y
 _atom_site_fract_z
 _atom_site_occupancy
  H  H0  1  0.11421939  0.75000000  0.04996036  1
  H  H1  1  0.61421939  0.25000000  0.45003964  1
  H  H2  1  0.88578061  0.25000000  0.95003964  1
  H  H3  1  0.38578061  0.75000000  0.54996036  1
  H  H4  1  0.51629640  0.98871427  0.16474976  1
  H  H5  1  0.01629640  0.01128573  0.33525024  1
  H  H6  1  0.48370360  0.48871427  0.83525024  1
  H  H7  1  0.98370360  0.51128573  0.66474976  1
  H  H8  1  0.48370360  0.01128573  0.83525024  1
  H  H9  1  0.98370360  0.98871427  0.66474976  1
  H  H10  1  0.51629640  0.51128573  0.16474976  1
  H  H11  1  0.01629640  0.48871427  0.33525024  1
  He  He12  1  0.48881697  0.75000000  0.07882601  1
  He  He13  1  0.98881697  0.25000000  0.42117399  1
  He  He14  1  0.51118303  0.25000000  0.92117399  1
  He  He15  1  0.01118303  0.75000000  0.57882601  1
  Li  Li16  1  0.51254750  0.75000000  0.34757201  1
  Li  Li17  1  0.01254750  0.25000000  0.15242799  1
  Li  Li18  1  0.48745250  0.25000000  0.65242799  1
  Li  Li19  1  0.98745250  0.75000000  0.84757201  1
