# generated using pymatgen
data_HHe4Li4
_symmetry_space_group_name_H-M   'P 1'
_cell_length_a   5.18856665
_cell_length_b   5.18856665
_cell_length_c   5.18856665
_cell_angle_alpha   75.16077954
_cell_angle_beta   75.16077954
_cell_angle_gamma   75.16077954
_symmetry_Int_Tables_number   1
_chemical_formula_structural   HHe4Li4
_chemical_formula_sum   'H1 He4 Li4'
_cell_volume   127.77890015
_cell_formula_units_Z   1
loop_
 _symmetry_equiv_pos_site_id
 _symmetry_equiv_pos_as_xyz
  1  'x, y, z'
loop_
 _atom_site_type_symbol
 _atom_site_label
 _atom_site_symmetry_multiplicity
 _atom_site_fract_x
 _atom_site_fract_y
 _atom_site_fract_z
 _atom_site_occupancy
  H  H0  1  0.04094377  0.04094377  0.04094377  1
  He  He1  1  0.81899416  0.81899416  0.81899416  1
  He  He2  1  0.42868154  0.42868154  -0.05817069  1
  He  He3  1  -0.05817069  0.42868154  0.42868154  1
  He  He4  1  0.42868154  -0.05817069  0.42868154  1
  Li  Li5  1  0.87106508  0.87106508  0.24384595  1
  Li  Li6  1  0.24384595  0.87106508  0.87106508  1
  Li  Li7  1  0.87106508  0.24384595  0.87106508  1
  Li  Li8  1  0.16362357  0.16362357  0.16362357  1
