# generated using pymatgen
data_H2He3
_symmetry_space_group_name_H-M   'P 1'
_cell_length_a   7.39193393
_cell_length_b   7.39193393
_cell_length_c   9.66417861
_cell_angle_alpha   85.52297812
_cell_angle_beta   85.52297812
_cell_angle_gamma   29.64668996
_symmetry_Int_Tables_number   1
_chemical_formula_structural   H2He3
_chemical_formula_sum   'H4 He6'
_cell_volume   260.35078662
_cell_formula_units_Z   2
loop_
 _symmetry_equiv_pos_site_id
 _symmetry_equiv_pos_as_xyz
  1  'x, y, z'
loop_
 _atom_site_type_symbol
 _atom_site_label
 _atom_site_symmetry_multiplicity
 _atom_site_fract_x
 _atom_site_fract_y
 _atom_site_fract_z
 _atom_site_occupancy
  H  H0  1  0.79401459  0.79401459  0.13811262  1
  H  H1  1  0.20598541  0.20598541  0.86188738  1
  H  H2  1  0.37658217  0.37658217  0.43509177  1
  H  H3  1  0.62341783  0.62341783  0.56490823  1
  He  He4  1  0.95658921  0.95658921  0.29213627  1
  He  He5  1  0.04341079  0.04341079  0.70786373  1
  He  He6  1  0.22561629  0.22561629  0.33362581  1
  He  He7  1  0.77438371  0.77438371  0.66637419  1
  He  He8  1  0.63500943  0.63500943  0.03028457  1
  He  He9  1  0.36499057  0.36499057  0.96971543  1
