# generated using pymatgen
data_HHe12Li5Be3
_symmetry_space_group_name_H-M   'P 1'
_cell_length_a   10.69612158
_cell_length_b   10.69577015
_cell_length_c   7.29671602
_cell_angle_alpha   90.00000000
_cell_angle_beta   90.00000000
_cell_angle_gamma   120.00268284
_symmetry_Int_Tables_number   1
_chemical_formula_structural   HHe12Li5Be3
_chemical_formula_sum   'H2 He24 Li10 Be6'
_cell_volume   722.91082351
_cell_formula_units_Z   2
loop_
 _symmetry_equiv_pos_site_id
 _symmetry_equiv_pos_as_xyz
  1  'x, y, z'
loop_
 _atom_site_type_symbol
 _atom_site_label
 _atom_site_symmetry_multiplicity
 _atom_site_fract_x
 _atom_site_fract_y
 _atom_site_fract_z
 _atom_site_occupancy
  H  H0  1  0.00000000  -0.00000000  -0.00000000  1
  H  H1  1  -0.00000000  0.00000000  0.50000000  1
  He  He2  1  0.51084346  0.15779323  0.25000000  1
  He  He3  1  0.84220397  0.35299855  0.25000000  1
  He  He4  1  0.64693869  0.48919649  0.25000000  1
  He  He5  1  0.48915654  0.84220677  0.75000000  1
  He  He6  1  0.15779603  0.64700145  0.75000000  1
  He  He7  1  0.35306131  0.51080351  0.75000000  1
  He  He8  1  0.47950988  0.87294645  0.25000000  1
  He  He9  1  0.12701435  0.60649797  0.25000000  1
  He  He10  1  0.39347311  0.52052154  0.25000000  1
  He  He11  1  0.52049012  0.12705355  0.75000000  1
  He  He12  1  0.87298565  0.39350203  0.75000000  1
  He  He13  1  0.60652689  0.47947846  0.75000000  1
  He  He14  1  0.27376959  0.91619052  0.06147550  1
  He  He15  1  0.08379982  0.35755009  0.06149218  1
  He  He16  1  0.64239859  0.72620831  0.06151168  1
  He  He17  1  0.72623041  0.08380948  0.56147550  1
  He  He18  1  0.91620018  0.64244991  0.56149218  1
  He  He19  1  0.35760141  0.27379169  0.56151168  1
  He  He20  1  0.72623041  0.08380948  0.93852450  1
  He  He21  1  0.91620018  0.64244991  0.93850782  1
  He  He22  1  0.35760141  0.27379169  0.93848832  1
  He  He23  1  0.27376959  0.91619052  0.43852450  1
  He  He24  1  0.08379982  0.35755009  0.43850782  1
  He  He25  1  0.64239859  0.72620831  0.43848832  1
  Li  Li26  1  0.66666604  0.33334895  0.00902437  1
  Li  Li27  1  0.33333396  0.66665105  0.50902437  1
  Li  Li28  1  0.33333396  0.66665105  0.99097563  1
  Li  Li29  1  0.66666604  0.33334895  0.49097563  1
  Li  Li30  1  0.03701773  0.77099326  0.25000000  1
  Li  Li31  1  0.22901865  0.26600004  0.25000000  1
  Li  Li32  1  0.73401286  0.96300107  0.25000000  1
  Li  Li33  1  0.96298227  0.22900674  0.75000000  1
  Li  Li34  1  0.77098135  0.73399996  0.75000000  1
  Li  Li35  1  0.26598714  0.03699893  0.75000000  1
  Be  Be36  1  0.38872164  0.97317749  0.25000000  1
  Be  Be37  1  0.02680367  0.41549311  0.25000000  1
  Be  Be38  1  0.58444886  0.61128655  0.25000000  1
  Be  Be39  1  0.61127836  0.02682251  0.75000000  1
  Be  Be40  1  0.97319633  0.58450689  0.75000000  1
  Be  Be41  1  0.41555114  0.38871345  0.75000000  1
