# generated using pymatgen
data_H3He
_symmetry_space_group_name_H-M   'P 1'
_cell_length_a   6.11718436
_cell_length_b   6.11699505
_cell_length_c   4.91899694
_cell_angle_alpha   90.00000000
_cell_angle_beta   90.00000000
_cell_angle_gamma   120.00102381
_symmetry_Int_Tables_number   1
_chemical_formula_structural   H3He
_chemical_formula_sum   'H6 He2'
_cell_volume   159.40149920
_cell_formula_units_Z   2
loop_
 _symmetry_equiv_pos_site_id
 _symmetry_equiv_pos_as_xyz
  1  'x, y, z'
loop_
 _atom_site_type_symbol
 _atom_site_label
 _atom_site_symmetry_multiplicity
 _atom_site_fract_x
 _atom_site_fract_y
 _atom_site_fract_z
 _atom_site_occupancy
  H  H0  1  0.32365269  0.16182156  0.25000000  1
  H  H1  1  0.83816887  0.16182156  0.25000000  1
  H  H2  1  0.83817395  0.67634790  0.25000000  1
  H  H3  1  0.67634731  0.83817844  0.75000000  1
  H  H4  1  0.16183113  0.83817844  0.75000000  1
  H  H5  1  0.16182605  0.32365210  0.75000000  1
  He  He6  1  0.66667053  0.33334106  0.75000000  1
  He  He7  1  0.33332947  0.66665894  0.25000000  1
