# generated using pymatgen
data_H14He4LiBe2
_symmetry_space_group_name_H-M   'P 1'
_cell_length_a   4.90506084
_cell_length_b   7.19966918
_cell_length_c   8.00364112
_cell_angle_alpha   90.29241405
_cell_angle_beta   92.55379514
_cell_angle_gamma   106.60153114
_symmetry_Int_Tables_number   1
_chemical_formula_structural   H14He4LiBe2
_chemical_formula_sum   'H14 He4 Li1 Be2'
_cell_volume   270.54897559
_cell_formula_units_Z   1
loop_
 _symmetry_equiv_pos_site_id
 _symmetry_equiv_pos_as_xyz
  1  'x, y, z'
loop_
 _atom_site_type_symbol
 _atom_site_label
 _atom_site_symmetry_multiplicity
 _atom_site_fract_x
 _atom_site_fract_y
 _atom_site_fract_z
 _atom_site_occupancy
  H  H0  1  0.51269328  0.23918140  0.88325881  1
  H  H1  1  0.48730672  0.76081860  0.11674119  1
  H  H2  1  0.81985847  0.09722951  0.70803726  1
  H  H3  1  0.18014153  0.90277049  0.29196274  1
  H  H4  1  0.37955116  0.17311084  0.57078450  1
  H  H5  1  0.62044884  0.82688916  0.42921550  1
  H  H6  1  0.80187879  0.44235573  0.65220799  1
  H  H7  1  0.19812121  0.55764427  0.34779201  1
  H  H8  1  0.87946324  0.65228796  0.91430208  1
  H  H9  1  0.12053676  0.34771204  0.08569792  1
  H  H10  1  0.70389259  0.44050988  0.20360946  1
  H  H11  1  0.29610741  0.55949012  0.79639054  1
  H  H12  1  0.91611208  0.20348145  0.35054028  1
  H  H13  1  0.08388792  0.79651855  0.64945972  1
  He  He14  1  0.61812956  0.22755199  0.70388030  1
  He  He15  1  0.38187044  0.77244801  0.29611970  1
  He  He16  1  0.02662434  0.61715180  0.75417008  1
  He  He17  1  0.97337566  0.38284820  0.24582992  1
  Li  Li18  1  0.00000000  -0.00000000  0.00000000  1
  Be  Be19  1  -0.00000000  0.00000000  0.50000000  1
  Be  Be20  1  0.50000000  0.50000000  0.00000000  1
