# generated using pymatgen
data_H4He3
_symmetry_space_group_name_H-M   'P 1'
_cell_length_a   7.66137724
_cell_length_b   7.66127048
_cell_length_c   2.92414832
_cell_angle_alpha   90.00000000
_cell_angle_beta   90.00000000
_cell_angle_gamma   120.00125327
_symmetry_Int_Tables_number   1
_chemical_formula_structural   H4He3
_chemical_formula_sum   'H8 He6'
_cell_volume   148.63879870
_cell_formula_units_Z   2
loop_
 _symmetry_equiv_pos_site_id
 _symmetry_equiv_pos_as_xyz
  1  'x, y, z'
loop_
 _atom_site_type_symbol
 _atom_site_label
 _atom_site_symmetry_multiplicity
 _atom_site_fract_x
 _atom_site_fract_y
 _atom_site_fract_z
 _atom_site_occupancy
  H  H0  1  0.03078687  0.33023823  0.25128282  1
  H  H1  1  0.66975283  0.70052867  0.25128321  1
  H  H2  1  0.29946096  0.96924043  0.25128287  1
  H  H3  1  0.96921313  0.66976177  0.75128282  1
  H  H4  1  0.33024717  0.29947133  0.75128321  1
  H  H5  1  0.70053904  0.03075957  0.75128287  1
  H  H6  1  0.66666164  0.33333839  0.25369161  1
  H  H7  1  0.33333836  0.66666161  0.75369161  1
  He  He8  1  0.76889269  0.17497670  0.25158692  1
  He  He9  1  0.82503002  0.59390034  0.25158673  1
  He  He10  1  0.40610155  0.23110319  0.25158584  1
  He  He11  1  0.23110731  0.82502330  0.75158692  1
  He  He12  1  0.17496998  0.40609966  0.75158673  1
  He  He13  1  0.59389845  0.76889681  0.75158584  1
