# generated using pymatgen
data_HHe2Li4
_symmetry_space_group_name_H-M   'P 1'
_cell_length_a   8.46023458
_cell_length_b   11.10600513
_cell_length_c   14.79580163
_cell_angle_alpha   90.00000000
_cell_angle_beta   90.00000000
_cell_angle_gamma   90.00000000
_symmetry_Int_Tables_number   1
_chemical_formula_structural   HHe2Li4
_chemical_formula_sum   'H4 He8 Li16'
_cell_volume   1390.20477049
_cell_formula_units_Z   4
loop_
 _symmetry_equiv_pos_site_id
 _symmetry_equiv_pos_as_xyz
  1  'x, y, z'
loop_
 _atom_site_type_symbol
 _atom_site_label
 _atom_site_symmetry_multiplicity
 _atom_site_fract_x
 _atom_site_fract_y
 _atom_site_fract_z
 _atom_site_occupancy
  H  H0  1  0.25000000  0.26199511  0.57689977  1
  H  H1  1  0.75000000  0.23800489  0.07689977  1
  H  H2  1  0.75000000  0.73800489  0.42310023  1
  H  H3  1  0.25000000  0.76199511  0.92310023  1
  He  He4  1  0.25000000  0.52113732  0.33549326  1
  He  He5  1  0.75000000  0.97886268  0.83549326  1
  He  He6  1  0.75000000  0.47886268  0.66450674  1
  He  He7  1  0.25000000  0.02113732  0.16450674  1
  He  He8  1  0.25000000  0.86949855  0.60532564  1
  He  He9  1  0.75000000  0.63050145  0.10532564  1
  He  He10  1  0.75000000  0.13050145  0.39467436  1
  He  He11  1  0.25000000  0.36949855  0.89467436  1
  Li  Li12  1  0.25000000  0.49851642  0.59960723  1
  Li  Li13  1  0.75000000  0.00148358  0.09960723  1
  Li  Li14  1  0.75000000  0.50148358  0.40039277  1
  Li  Li15  1  0.25000000  0.99851642  0.90039277  1
  Li  Li16  1  0.25000000  0.18560478  0.40795101  1
  Li  Li17  1  0.75000000  0.31439522  0.90795101  1
  Li  Li18  1  0.75000000  0.81439522  0.59204899  1
  Li  Li19  1  0.25000000  0.68560478  0.09204899  1
  Li  Li20  1  0.50465705  0.17295415  0.65344539  1
  Li  Li21  1  0.49534295  0.32704585  0.15344539  1
  Li  Li22  1  0.00465705  0.82704585  0.34655461  1
  Li  Li23  1  0.99534295  0.67295415  0.84655461  1
  Li  Li24  1  0.49534295  0.82704585  0.34655461  1
  Li  Li25  1  0.50465705  0.67295415  0.84655461  1
  Li  Li26  1  0.99534295  0.17295415  0.65344539  1
  Li  Li27  1  0.00465705  0.32704585  0.15344539  1
