# generated using pymatgen
data_H2He3
_symmetry_space_group_name_H-M   'P 1'
_cell_length_a   7.91079513
_cell_length_b   7.91079513
_cell_length_c   6.19290861
_cell_angle_alpha   90.00026492
_cell_angle_beta   90.00026492
_cell_angle_gamma   120.00249840
_symmetry_Int_Tables_number   1
_chemical_formula_structural   H2He3
_chemical_formula_sum   'H8 He12'
_cell_volume   335.62526290
_cell_formula_units_Z   4
loop_
 _symmetry_equiv_pos_site_id
 _symmetry_equiv_pos_as_xyz
  1  'x, y, z'
loop_
 _atom_site_type_symbol
 _atom_site_label
 _atom_site_symmetry_multiplicity
 _atom_site_fract_x
 _atom_site_fract_y
 _atom_site_fract_z
 _atom_site_occupancy
  H  H0  1  0.19915548  0.33884139  0.25847509  1
  H  H1  1  0.66115561  0.86030432  0.25847301  1
  H  H2  1  0.13968015  0.80084444  0.25847638  1
  H  H3  1  0.33884139  0.19915548  0.75847509  1
  H  H4  1  0.86030432  0.66115561  0.75847301  1
  H  H5  1  0.80084444  0.13968015  0.75847638  1
  H  H6  1  0.66666267  0.33332482  0.26121400  1
  H  H7  1  0.33332482  0.66666267  0.76121400  1
  He  He8  1  0.40928297  0.48988117  0.95874987  1
  He  He9  1  0.51013883  0.91941296  0.95874994  1
  He  He10  1  0.08058540  0.59071292  0.95875589  1
  He  He11  1  0.48988117  0.40928297  0.45874987  1
  He  He12  1  0.91941296  0.51013883  0.45874994  1
  He  He13  1  0.59071292  0.08058540  0.45875589  1
  He  He14  1  0.86340487  0.74836688  0.13802734  1
  He  He15  1  0.25164137  0.11505269  0.13803506  1
  He  He16  1  0.88495596  0.13659509  0.13804343  1
  He  He17  1  0.74836688  0.86340487  0.63802734  1
  He  He18  1  0.11505269  0.25164137  0.63803506  1
  He  He19  1  0.13659509  0.88495596  0.63804343  1
