# generated using pymatgen
data_H4He16Li
_symmetry_space_group_name_H-M   'P 1'
_cell_length_a   5.67669465
_cell_length_b   5.67669465
_cell_length_c   12.29139177
_cell_angle_alpha   90.00000000
_cell_angle_beta   90.00000000
_cell_angle_gamma   90.45088723
_symmetry_Int_Tables_number   1
_chemical_formula_structural   H4He16Li
_chemical_formula_sum   'H8 He32 Li2'
_cell_volume   396.07614020
_cell_formula_units_Z   2
loop_
 _symmetry_equiv_pos_site_id
 _symmetry_equiv_pos_as_xyz
  1  'x, y, z'
loop_
 _atom_site_type_symbol
 _atom_site_label
 _atom_site_symmetry_multiplicity
 _atom_site_fract_x
 _atom_site_fract_y
 _atom_site_fract_z
 _atom_site_occupancy
  H  H0  1  0.35128850  0.78854285  0.75000000  1
  H  H1  1  0.64871150  0.21145715  0.25000000  1
  H  H2  1  0.78854285  0.35128850  0.75000000  1
  H  H3  1  0.21145715  0.64871150  0.25000000  1
  H  H4  1  0.22312692  0.22312692  0.54819187  1
  H  H5  1  0.77687308  0.77687308  0.04819187  1
  H  H6  1  0.22312692  0.22312692  0.95180813  1
  H  H7  1  0.77687308  0.77687308  0.45180813  1
  He  He8  1  0.51872157  0.92867789  0.75000000  1
  He  He9  1  0.48127843  0.07132211  0.25000000  1
  He  He10  1  0.92867789  0.51872157  0.75000000  1
  He  He11  1  0.07132211  0.48127843  0.25000000  1
  He  He12  1  0.15915928  0.88981279  0.75000000  1
  He  He13  1  0.84084072  0.11018721  0.25000000  1
  He  He14  1  0.88981279  0.15915928  0.75000000  1
  He  He15  1  0.11018721  0.84084072  0.25000000  1
  He  He16  1  0.36114681  0.67148437  0.83382726  1
  He  He17  1  0.63885319  0.32851563  0.33382726  1
  He  He18  1  0.67148437  0.36114681  0.66617274  1
  He  He19  1  0.32851563  0.63885319  0.16617274  1
  He  He20  1  0.63885319  0.32851563  0.16617274  1
  He  He21  1  0.36114681  0.67148437  0.66617274  1
  He  He22  1  0.32851563  0.63885319  0.33382726  1
  He  He23  1  0.67148437  0.36114681  0.83382726  1
  He  He24  1  0.09515697  0.09515697  0.60566428  1
  He  He25  1  0.90484303  0.90484303  0.10566428  1
  He  He26  1  0.09515697  0.09515697  0.89433572  1
  He  He27  1  0.90484303  0.90484303  0.39433572  1
  He  He28  1  0.42739960  0.18073738  0.57918648  1
  He  He29  1  0.57260040  0.81926262  0.07918648  1
  He  He30  1  0.18073738  0.42739960  0.92081352  1
  He  He31  1  0.81926262  0.57260040  0.42081352  1
  He  He32  1  0.57260040  0.81926262  0.42081352  1
  He  He33  1  0.42739960  0.18073738  0.92081352  1
  He  He34  1  0.81926262  0.57260040  0.07918648  1
  He  He35  1  0.18073738  0.42739960  0.57918648  1
  He  He36  1  0.80480445  0.80480445  0.54731289  1
  He  He37  1  0.19519555  0.19519555  0.04731289  1
  He  He38  1  0.80480445  0.80480445  0.95268711  1
  He  He39  1  0.19519555  0.19519555  0.45268711  1
  Li  Li40  1  0.28566345  0.28566345  0.75000000  1
  Li  Li41  1  0.71433655  0.71433655  0.25000000  1
