# generated using pymatgen
data_HHe2
_symmetry_space_group_name_H-M   'P 1'
_cell_length_a   4.65182233
_cell_length_b   4.65182233
_cell_length_c   10.13882433
_cell_angle_alpha   90.00000000
_cell_angle_beta   90.00000000
_cell_angle_gamma   102.96657021
_symmetry_Int_Tables_number   1
_chemical_formula_structural   HHe2
_chemical_formula_sum   'H2 He4'
_cell_volume   213.80418028
_cell_formula_units_Z   2
loop_
 _symmetry_equiv_pos_site_id
 _symmetry_equiv_pos_as_xyz
  1  'x, y, z'
loop_
 _atom_site_type_symbol
 _atom_site_label
 _atom_site_symmetry_multiplicity
 _atom_site_fract_x
 _atom_site_fract_y
 _atom_site_fract_z
 _atom_site_occupancy
  H  H0  1  -0.00000000  -0.00000000  0.50000000  1
  H  H1  1  0.50000000  0.50000000  -0.00000000  1
  He  He2  1  0.30692214  0.30692214  0.89324629  1
  He  He3  1  0.19307786  0.19307786  0.39324629  1
  He  He4  1  0.80692214  0.80692214  0.60675371  1
  He  He5  1  0.69307786  0.69307786  0.10675371  1
