# generated using pymatgen
data_H7He6Li5
_symmetry_space_group_name_H-M   'P 1'
_cell_length_a   13.33624129
_cell_length_b   13.33624129
_cell_length_c   13.33624129
_cell_angle_alpha   90.00000000
_cell_angle_beta   90.00000000
_cell_angle_gamma   90.00000000
_symmetry_Int_Tables_number   1
_chemical_formula_structural   H7He6Li5
_chemical_formula_sum   'H28 He24 Li20'
_cell_volume   2371.92161822
_cell_formula_units_Z   4
loop_
 _symmetry_equiv_pos_site_id
 _symmetry_equiv_pos_as_xyz
  1  'x, y, z'
loop_
 _atom_site_type_symbol
 _atom_site_label
 _atom_site_symmetry_multiplicity
 _atom_site_fract_x
 _atom_site_fract_y
 _atom_site_fract_z
 _atom_site_occupancy
  H  H0  1  0.44935846  0.20279469  0.04371448  1
  H  H1  1  0.05064154  0.79720531  0.54371448  1
  H  H2  1  0.55064154  0.70279469  0.45628552  1
  H  H3  1  0.94935846  0.29720531  0.95628552  1
  H  H4  1  0.04371448  0.44935846  0.20279469  1
  H  H5  1  0.54371448  0.05064154  0.79720531  1
  H  H6  1  0.45628552  0.55064154  0.70279469  1
  H  H7  1  0.95628552  0.94935846  0.29720531  1
  H  H8  1  0.20279469  0.04371448  0.44935846  1
  H  H9  1  0.79720531  0.54371448  0.05064154  1
  H  H10  1  0.70279469  0.45628552  0.55064154  1
  H  H11  1  0.29720531  0.95628552  0.94935846  1
  H  H12  1  0.55064154  0.79720531  0.95628552  1
  H  H13  1  0.94935846  0.20279469  0.45628552  1
  H  H14  1  0.44935846  0.29720531  0.54371448  1
  H  H15  1  0.05064154  0.70279469  0.04371448  1
  H  H16  1  0.95628552  0.55064154  0.79720531  1
  H  H17  1  0.45628552  0.94935846  0.20279469  1
  H  H18  1  0.54371448  0.44935846  0.29720531  1
  H  H19  1  0.04371448  0.05064154  0.70279469  1
  H  H20  1  0.79720531  0.95628552  0.55064154  1
  H  H21  1  0.20279469  0.45628552  0.94935846  1
  H  H22  1  0.29720531  0.54371448  0.44935846  1
  H  H23  1  0.70279469  0.04371448  0.05064154  1
  H  H24  1  0.00000000  0.00000000  0.00000000  1
  H  H25  1  0.50000000  0.00000000  0.50000000  1
  H  H26  1  0.00000000  0.50000000  0.50000000  1
  H  H27  1  0.50000000  0.50000000  0.00000000  1
  He  He28  1  0.18399512  0.29819371  0.44694945  1
  He  He29  1  0.31600488  0.70180629  0.94694945  1
  He  He30  1  0.81600488  0.79819371  0.05305055  1
  He  He31  1  0.68399512  0.20180629  0.55305055  1
  He  He32  1  0.44694945  0.18399512  0.29819371  1
  He  He33  1  0.94694945  0.31600488  0.70180629  1
  He  He34  1  0.05305055  0.81600488  0.79819371  1
  He  He35  1  0.55305055  0.68399512  0.20180629  1
  He  He36  1  0.29819371  0.44694945  0.18399512  1
  He  He37  1  0.70180629  0.94694945  0.31600488  1
  He  He38  1  0.79819371  0.05305055  0.81600488  1
  He  He39  1  0.20180629  0.55305055  0.68399512  1
  He  He40  1  0.81600488  0.70180629  0.55305055  1
  He  He41  1  0.68399512  0.29819371  0.05305055  1
  He  He42  1  0.18399512  0.20180629  0.94694945  1
  He  He43  1  0.31600488  0.79819371  0.44694945  1
  He  He44  1  0.55305055  0.81600488  0.70180629  1
  He  He45  1  0.05305055  0.68399512  0.29819371  1
  He  He46  1  0.94694945  0.18399512  0.20180629  1
  He  He47  1  0.44694945  0.31600488  0.79819371  1
  He  He48  1  0.70180629  0.55305055  0.81600488  1
  He  He49  1  0.29819371  0.05305055  0.68399512  1
  He  He50  1  0.20180629  0.94694945  0.18399512  1
  He  He51  1  0.79819371  0.44694945  0.31600488  1
  Li  Li52  1  0.50000000  0.00000000  0.00000000  1
  Li  Li53  1  0.00000000  0.00000000  0.50000000  1
  Li  Li54  1  0.50000000  0.50000000  0.50000000  1
  Li  Li55  1  0.00000000  0.50000000  0.00000000  1
  Li  Li56  1  0.13497033  0.13497033  0.13497033  1
  Li  Li57  1  0.36502967  0.86502967  0.63497033  1
  Li  Li58  1  0.86502967  0.63497033  0.36502967  1
  Li  Li59  1  0.63497033  0.36502967  0.86502967  1
  Li  Li60  1  0.86502967  0.86502967  0.86502967  1
  Li  Li61  1  0.63497033  0.13497033  0.36502967  1
  Li  Li62  1  0.13497033  0.36502967  0.63497033  1
  Li  Li63  1  0.36502967  0.63497033  0.13497033  1
  Li  Li64  1  0.26095366  0.26095366  0.26095366  1
  Li  Li65  1  0.23904634  0.73904634  0.76095366  1
  Li  Li66  1  0.73904634  0.76095366  0.23904634  1
  Li  Li67  1  0.76095366  0.23904634  0.73904634  1
  Li  Li68  1  0.73904634  0.73904634  0.73904634  1
  Li  Li69  1  0.76095366  0.26095366  0.23904634  1
  Li  Li70  1  0.26095366  0.23904634  0.76095366  1
  Li  Li71  1  0.23904634  0.76095366  0.26095366  1
