# generated using pymatgen
data_HHe12Li
_symmetry_space_group_name_H-M   'P 1'
_cell_length_a   8.13698948
_cell_length_b   8.13698948
_cell_length_c   8.13698948
_cell_angle_alpha   60.00000000
_cell_angle_beta   60.00000000
_cell_angle_gamma   60.00000000
_symmetry_Int_Tables_number   1
_chemical_formula_structural   HHe12Li
_chemical_formula_sum   'H2 He24 Li2'
_cell_volume   380.95727044
_cell_formula_units_Z   2
loop_
 _symmetry_equiv_pos_site_id
 _symmetry_equiv_pos_as_xyz
  1  'x, y, z'
loop_
 _atom_site_type_symbol
 _atom_site_label
 _atom_site_symmetry_multiplicity
 _atom_site_fract_x
 _atom_site_fract_y
 _atom_site_fract_z
 _atom_site_occupancy
  H  H0  1  0.00000000  0.00000000  0.00000000  1
  H  H1  1  0.50000000  0.50000000  0.50000000  1
  He  He2  1  0.70819281  0.29180719  0.06158329  1
  He  He3  1  0.93841671  0.06158329  0.29180719  1
  He  He4  1  0.06158329  0.93841671  0.70819281  1
  He  He5  1  0.29180719  0.70819281  0.93841671  1
  He  He6  1  0.06158329  0.29180719  0.93841671  1
  He  He7  1  0.29180719  0.06158329  0.70819281  1
  He  He8  1  0.70819281  0.93841671  0.29180719  1
  He  He9  1  0.93841671  0.70819281  0.06158329  1
  He  He10  1  0.93841671  0.29180719  0.70819281  1
  He  He11  1  0.70819281  0.06158329  0.93841671  1
  He  He12  1  0.29180719  0.93841671  0.06158329  1
  He  He13  1  0.06158329  0.70819281  0.29180719  1
  He  He14  1  0.79180719  0.43841671  0.20819281  1
  He  He15  1  0.56158329  0.20819281  0.43841671  1
  He  He16  1  0.43841671  0.79180719  0.56158329  1
  He  He17  1  0.20819281  0.56158329  0.79180719  1
  He  He18  1  0.43841671  0.56158329  0.20819281  1
  He  He19  1  0.20819281  0.79180719  0.43841671  1
  He  He20  1  0.79180719  0.20819281  0.56158329  1
  He  He21  1  0.56158329  0.43841671  0.79180719  1
  He  He22  1  0.56158329  0.79180719  0.20819281  1
  He  He23  1  0.79180719  0.56158329  0.43841671  1
  He  He24  1  0.20819281  0.43841671  0.56158329  1
  He  He25  1  0.43841671  0.20819281  0.79180719  1
  Li  Li26  1  0.75000000  0.75000000  0.75000000  1
  Li  Li27  1  0.25000000  0.25000000  0.25000000  1
