# generated using pymatgen
data_H2He5Li
_symmetry_space_group_name_H-M   'P 1'
_cell_length_a   5.04196582
_cell_length_b   7.78275550
_cell_length_c   10.96405757
_cell_angle_alpha   76.74979440
_cell_angle_beta   90.00000000
_cell_angle_gamma   90.00000000
_symmetry_Int_Tables_number   1
_chemical_formula_structural   H2He5Li
_chemical_formula_sum   'H8 He20 Li4'
_cell_volume   418.78036638
_cell_formula_units_Z   4
loop_
 _symmetry_equiv_pos_site_id
 _symmetry_equiv_pos_as_xyz
  1  'x, y, z'
loop_
 _atom_site_type_symbol
 _atom_site_label
 _atom_site_symmetry_multiplicity
 _atom_site_fract_x
 _atom_site_fract_y
 _atom_site_fract_z
 _atom_site_occupancy
  H  H0  1  0.93029912  0.96848302  0.36890936  1
  H  H1  1  0.43029912  0.03151698  0.13109064  1
  H  H2  1  0.06970088  0.03151698  0.63109064  1
  H  H3  1  0.56970088  0.96848302  0.86890936  1
  H  H4  1  0.95578188  0.81479221  0.09262246  1
  H  H5  1  0.45578188  0.18520779  0.40737754  1
  H  H6  1  0.04421812  0.18520779  0.90737754  1
  H  H7  1  0.54421812  0.81479221  0.59262246  1
  He  He8  1  0.10619320  0.23058642  0.31644379  1
  He  He9  1  0.60619320  0.76941358  0.18355621  1
  He  He10  1  0.89380680  0.76941358  0.68355621  1
  He  He11  1  0.39380680  0.23058642  0.81644379  1
  He  He12  1  0.12641298  0.57653733  0.15923384  1
  He  He13  1  0.62641298  0.42346267  0.34076616  1
  He  He14  1  0.87358702  0.42346267  0.84076616  1
  He  He15  1  0.37358702  0.57653733  0.65923384  1
  He  He16  1  0.25014095  0.94937213  0.98503765  1
  He  He17  1  0.75014095  0.05062787  0.51496235  1
  He  He18  1  0.74985905  0.05062787  0.01496235  1
  He  He19  1  0.24985905  0.94937213  0.48503765  1
  He  He20  1  0.36888173  0.89894133  0.73353100  1
  He  He21  1  0.86888173  0.10105867  0.76646900  1
  He  He22  1  0.63111827  0.10105867  0.26646900  1
  He  He23  1  0.13111827  0.89894133  0.23353100  1
  He  He24  1  0.29647866  0.25909729  0.56461713  1
  He  He25  1  0.79647866  0.74090271  0.93538287  1
  He  He26  1  0.70352134  0.74090271  0.43538287  1
  He  He27  1  0.20352134  0.25909729  0.06461713  1
  Li  Li28  1  0.44399729  0.64289456  0.33370105  1
  Li  Li29  1  0.94399729  0.35710544  0.16629895  1
  Li  Li30  1  0.55600271  0.35710544  0.66629895  1
  Li  Li31  1  0.05600271  0.64289456  0.83370105  1
