# generated using pymatgen
data_HHe2Li5Be
_symmetry_space_group_name_H-M   'P 1'
_cell_length_a   3.82040461
_cell_length_b   4.02438477
_cell_length_c   7.66857736
_cell_angle_alpha   90.00000000
_cell_angle_beta   90.00000000
_cell_angle_gamma   90.00000000
_symmetry_Int_Tables_number   1
_chemical_formula_structural   HHe2Li5Be
_chemical_formula_sum   'H1 He2 Li5 Be1'
_cell_volume   117.90267550
_cell_formula_units_Z   1
loop_
 _symmetry_equiv_pos_site_id
 _symmetry_equiv_pos_as_xyz
  1  'x, y, z'
loop_
 _atom_site_type_symbol
 _atom_site_label
 _atom_site_symmetry_multiplicity
 _atom_site_fract_x
 _atom_site_fract_y
 _atom_site_fract_z
 _atom_site_occupancy
  H  H0  1  0.50000000  0.50000000  0.00000000  1
  He  He1  1  0.00000000  0.00000000  0.25765398  1
  He  He2  1  0.00000000  0.00000000  0.74234602  1
  Li  Li3  1  0.00000000  0.00000000  0.00000000  1
  Li  Li4  1  0.00000000  0.50000000  0.30930745  1
  Li  Li5  1  0.00000000  0.50000000  0.69069255  1
  Li  Li6  1  0.50000000  0.00000000  0.32099593  1
  Li  Li7  1  0.50000000  0.00000000  0.67900407  1
  Be  Be8  1  0.50000000  0.50000000  0.50000000  1
