# generated using pymatgen
data_H4He
_symmetry_space_group_name_H-M   'P 1'
_cell_length_a   7.88453243
_cell_length_b   6.32606338
_cell_length_c   6.93581462
_cell_angle_alpha   71.58621175
_cell_angle_beta   90.00000000
_cell_angle_gamma   90.00000000
_symmetry_Int_Tables_number   1
_chemical_formula_structural   H4He
_chemical_formula_sum   'H8 He2'
_cell_volume   328.23254981
_cell_formula_units_Z   2
loop_
 _symmetry_equiv_pos_site_id
 _symmetry_equiv_pos_as_xyz
  1  'x, y, z'
loop_
 _atom_site_type_symbol
 _atom_site_label
 _atom_site_symmetry_multiplicity
 _atom_site_fract_x
 _atom_site_fract_y
 _atom_site_fract_z
 _atom_site_occupancy
  H  H0  1  0.84317567  0.96492974  0.26309665  1
  H  H1  1  0.84317567  0.53507026  0.73690335  1
  H  H2  1  0.15682433  0.03507026  0.73690335  1
  H  H3  1  0.15682433  0.46492974  0.26309665  1
  H  H4  1  0.39909564  0.99653347  0.29509469  1
  H  H5  1  0.39909564  0.50346653  0.70490531  1
  H  H6  1  0.60090436  0.00346653  0.70490531  1
  H  H7  1  0.60090436  0.49653347  0.29509469  1
  He  He8  1  0.65424689  0.75000000  0.50000000  1
  He  He9  1  0.34575311  0.25000000  0.50000000  1
