# generated using pymatgen
data_H4He2Li3
_symmetry_space_group_name_H-M   'P 1'
_cell_length_a   18.74394574
_cell_length_b   7.55656688
_cell_length_c   7.70161364
_cell_angle_alpha   68.14106220
_cell_angle_beta   90.00000000
_cell_angle_gamma   90.00000000
_symmetry_Int_Tables_number   1
_chemical_formula_structural   H4He2Li3
_chemical_formula_sum   'H16 He8 Li12'
_cell_volume   1012.42673627
_cell_formula_units_Z   4
loop_
 _symmetry_equiv_pos_site_id
 _symmetry_equiv_pos_as_xyz
  1  'x, y, z'
loop_
 _atom_site_type_symbol
 _atom_site_label
 _atom_site_symmetry_multiplicity
 _atom_site_fract_x
 _atom_site_fract_y
 _atom_site_fract_z
 _atom_site_occupancy
  H  H0  1  0.19796943  0.27666656  0.50267807  1
  H  H1  1  0.69796943  0.22333344  0.49732193  1
  H  H2  1  0.80203057  0.72333344  0.49732193  1
  H  H3  1  0.30203057  0.77666656  0.50267807  1
  H  H4  1  0.31424126  0.28054673  0.04016476  1
  H  H5  1  0.81424126  0.21945327  0.95983524  1
  H  H6  1  0.68575874  0.71945327  0.95983524  1
  H  H7  1  0.18575874  0.78054673  0.04016476  1
  H  H8  1  0.06038490  0.24759810  0.00770914  1
  H  H9  1  0.56038490  0.25240190  0.99229086  1
  H  H10  1  0.93961510  0.75240190  0.99229086  1
  H  H11  1  0.43961510  0.74759810  0.00770914  1
  H  H12  1  0.06788386  0.75841191  0.49692890  1
  H  H13  1  0.56788386  0.74158809  0.50307110  1
  H  H14  1  0.93211614  0.24158809  0.50307110  1
  H  H15  1  0.43211614  0.25841191  0.49692890  1
  He  He16  1  0.25952078  0.58558298  0.31511378  1
  He  He17  1  0.75952078  0.91441702  0.68488622  1
  He  He18  1  0.74047922  0.41441702  0.68488622  1
  He  He19  1  0.24047922  0.08558298  0.31511378  1
  He  He20  1  0.62853042  0.52786255  0.78772325  1
  He  He21  1  0.12853042  0.97213745  0.21227675  1
  He  He22  1  0.37146958  0.47213745  0.21227675  1
  He  He23  1  0.87146958  0.02786255  0.78772325  1
  Li  Li24  1  0.06158216  0.01188132  0.74431762  1
  Li  Li25  1  0.56158216  0.48811868  0.25568238  1
  Li  Li26  1  0.93841784  0.98811868  0.25568238  1
  Li  Li27  1  0.43841784  0.51188132  0.74431762  1
  Li  Li28  1  0.05987801  0.49733953  0.26093943  1
  Li  Li29  1  0.55987801  0.00266047  0.73906057  1
  Li  Li30  1  0.94012199  0.50266047  0.73906057  1
  Li  Li31  1  0.44012199  0.99733953  0.26093943  1
  Li  Li32  1  0.18454490  0.51212306  0.78269871  1
  Li  Li33  1  0.68454490  0.98787694  0.21730129  1
  Li  Li34  1  0.81545510  0.48787694  0.21730129  1
  Li  Li35  1  0.31545510  0.01212306  0.78269871  1
