# generated using pymatgen
data_HHe5LiBe2
_symmetry_space_group_name_H-M   'P 1'
_cell_length_a   6.85615643
_cell_length_b   6.85615643
_cell_length_c   6.00359196
_cell_angle_alpha   90.00000000
_cell_angle_beta   90.00000000
_cell_angle_gamma   90.00000000
_symmetry_Int_Tables_number   1
_chemical_formula_structural   HHe5LiBe2
_chemical_formula_sum   'H2 He10 Li2 Be4'
_cell_volume   282.21013320
_cell_formula_units_Z   2
loop_
 _symmetry_equiv_pos_site_id
 _symmetry_equiv_pos_as_xyz
  1  'x, y, z'
loop_
 _atom_site_type_symbol
 _atom_site_label
 _atom_site_symmetry_multiplicity
 _atom_site_fract_x
 _atom_site_fract_y
 _atom_site_fract_z
 _atom_site_occupancy
  H  H0  1  0.00000000  0.00000000  0.00000000  1
  H  H1  1  0.50000000  0.50000000  0.00000000  1
  He  He2  1  0.35877244  0.85877244  0.75075202  1
  He  He3  1  0.64122756  0.14122756  0.75075202  1
  He  He4  1  0.14122756  0.35877244  0.75075202  1
  He  He5  1  0.85877244  0.64122756  0.75075202  1
  He  He6  1  0.14122756  0.35877244  0.24924798  1
  He  He7  1  0.85877244  0.64122756  0.24924798  1
  He  He8  1  0.35877244  0.85877244  0.24924798  1
  He  He9  1  0.64122756  0.14122756  0.24924798  1
  He  He10  1  0.00000000  0.00000000  0.50000000  1
  He  He11  1  0.50000000  0.50000000  0.50000000  1
  Li  Li12  1  0.00000000  0.50000000  0.00000000  1
  Li  Li13  1  0.50000000  0.00000000  0.00000000  1
  Be  Be14  1  0.17373556  0.67373556  0.50000000  1
  Be  Be15  1  0.82626444  0.32626444  0.50000000  1
  Be  Be16  1  0.32626444  0.17373556  0.50000000  1
  Be  Be17  1  0.67373556  0.82626444  0.50000000  1
