# generated using pymatgen
data_H3He4Li12
_symmetry_space_group_name_H-M   'P 1'
_cell_length_a   10.10847347
_cell_length_b   10.10847347
_cell_length_c   8.12103342
_cell_angle_alpha   90.00000000
_cell_angle_beta   90.00000000
_cell_angle_gamma   132.64663191
_symmetry_Int_Tables_number   1
_chemical_formula_structural   H3He4Li12
_chemical_formula_sum   'H6 He8 Li24'
_cell_volume   610.36870214
_cell_formula_units_Z   2
loop_
 _symmetry_equiv_pos_site_id
 _symmetry_equiv_pos_as_xyz
  1  'x, y, z'
loop_
 _atom_site_type_symbol
 _atom_site_label
 _atom_site_symmetry_multiplicity
 _atom_site_fract_x
 _atom_site_fract_y
 _atom_site_fract_z
 _atom_site_occupancy
  H  H0  1  -0.00000000  -0.00000000  -0.00000000  1
  H  H1  1  0.50000000  0.50000000  0.50000000  1
  H  H2  1  0.50332075  0.00332075  0.25000000  1
  H  H3  1  0.99667925  0.49667925  0.75000000  1
  H  H4  1  0.49667925  0.99667925  0.75000000  1
  H  H5  1  0.00332075  0.50332075  0.25000000  1
  He  He6  1  0.83066814  0.16933186  0.00000000  1
  He  He7  1  0.66933186  0.33066814  0.50000000  1
  He  He8  1  0.16933186  0.83066814  0.00000000  1
  He  He9  1  0.33066814  0.66933186  0.50000000  1
  He  He10  1  0.62675401  0.62675401  0.12704428  1
  He  He11  1  0.87324599  0.87324599  0.62704428  1
  He  He12  1  0.12675401  0.12675401  0.37295572  1
  He  He13  1  0.37324599  0.37324599  0.87295572  1
  Li  Li14  1  0.70556358  0.29443642  -0.00000000  1
  Li  Li15  1  0.79443642  0.20556358  0.50000000  1
  Li  Li16  1  0.29443642  0.70556358  -0.00000000  1
  Li  Li17  1  0.20556358  0.79443642  0.50000000  1
  Li  Li18  1  0.83345376  0.83345376  0.33384810  1
  Li  Li19  1  0.66654624  0.66654624  0.83384810  1
  Li  Li20  1  0.33345376  0.33345376  0.16615190  1
  Li  Li21  1  0.16654624  0.16654624  0.66615190  1
  Li  Li22  1  0.38745056  0.62180223  0.22824533  1
  Li  Li23  1  0.11254944  0.87819777  0.72824533  1
  Li  Li24  1  0.12180223  0.88745056  0.27175467  1
  Li  Li25  1  0.37819777  0.61254944  0.77175467  1
  Li  Li26  1  0.61254944  0.37819777  0.77175467  1
  Li  Li27  1  0.88745056  0.12180223  0.27175467  1
  Li  Li28  1  0.87819777  0.11254944  0.72824533  1
  Li  Li29  1  0.62180223  0.38745056  0.22824533  1
  Li  Li30  1  0.61110368  0.84545917  0.00559437  1
  Li  Li31  1  0.88889632  0.65454083  0.50559437  1
  Li  Li32  1  0.34545917  0.11110368  0.49440563  1
  Li  Li33  1  0.15454083  0.38889632  0.99440563  1
  Li  Li34  1  0.38889632  0.15454083  0.99440563  1
  Li  Li35  1  0.11110368  0.34545917  0.49440563  1
  Li  Li36  1  0.65454083  0.88889632  0.50559437  1
  Li  Li37  1  0.84545917  0.61110368  0.00559437  1
