# generated using pymatgen
data_HHeLi
_symmetry_space_group_name_H-M   'P 1'
_cell_length_a   7.29474361
_cell_length_b   7.29471737
_cell_length_c   4.30068202
_cell_angle_alpha   90.00000000
_cell_angle_beta   90.00000000
_cell_angle_gamma   120.00011899
_symmetry_Int_Tables_number   1
_chemical_formula_structural   HHeLi
_chemical_formula_sum   'H3 He3 Li3'
_cell_volume   198.19192079
_cell_formula_units_Z   3
loop_
 _symmetry_equiv_pos_site_id
 _symmetry_equiv_pos_as_xyz
  1  'x, y, z'
loop_
 _atom_site_type_symbol
 _atom_site_label
 _atom_site_symmetry_multiplicity
 _atom_site_fract_x
 _atom_site_fract_y
 _atom_site_fract_z
 _atom_site_occupancy
  H  H0  1  0.00001056  0.75110613  0.00000000  1
  H  H1  1  0.24890443  0.24889387  0.00000000  1
  H  H2  1  0.75108578  0.00000000  0.00000000  1
  He  He3  1  0.66666974  0.33334197  0.00000000  1
  He  He4  1  0.33332777  0.66665803  0.00000000  1
  He  He5  1  -0.00000018  0.00000000  0.50000000  1
  Li  Li6  1  0.99999743  0.41385506  0.50000000  1
  Li  Li7  1  0.58614237  0.58614494  0.50000000  1
  Li  Li8  1  0.41386209  -0.00000000  0.50000000  1
