# generated using pymatgen
data_H3He2Li2
_symmetry_space_group_name_H-M   'P 1'
_cell_length_a   5.44014688
_cell_length_b   5.44014688
_cell_length_c   6.58790928
_cell_angle_alpha   79.95582452
_cell_angle_beta   79.95582452
_cell_angle_gamma   43.46567015
_symmetry_Int_Tables_number   1
_chemical_formula_structural   H3He2Li2
_chemical_formula_sum   'H3 He2 Li2'
_cell_volume   131.73883943
_cell_formula_units_Z   1
loop_
 _symmetry_equiv_pos_site_id
 _symmetry_equiv_pos_as_xyz
  1  'x, y, z'
loop_
 _atom_site_type_symbol
 _atom_site_label
 _atom_site_symmetry_multiplicity
 _atom_site_fract_x
 _atom_site_fract_y
 _atom_site_fract_z
 _atom_site_occupancy
  H  H0  1  0.30523989  0.30523989  0.86653168  1
  H  H1  1  0.69476011  0.69476011  0.13346832  1
  H  H2  1  -0.00000000  0.00000000  -0.00000000  1
  He  He3  1  0.61930740  0.61930740  0.67727435  1
  He  He4  1  0.38069260  0.38069260  0.32272565  1
  Li  Li5  1  0.09356771  0.09356771  0.36069018  1
  Li  Li6  1  0.90643229  0.90643229  0.63930982  1
