# generated using pymatgen
data_H6He2Li
_symmetry_space_group_name_H-M   'P 1'
_cell_length_a   6.02788771
_cell_length_b   6.02788771
_cell_length_c   5.01084673
_cell_angle_alpha   90.00048843
_cell_angle_beta   89.99951157
_cell_angle_gamma   120.00571451
_symmetry_Int_Tables_number   1
_chemical_formula_structural   H6He2Li
_chemical_formula_sum   'H6 He2 Li1'
_cell_volume   157.66926659
_cell_formula_units_Z   1
loop_
 _symmetry_equiv_pos_site_id
 _symmetry_equiv_pos_as_xyz
  1  'x, y, z'
loop_
 _atom_site_type_symbol
 _atom_site_label
 _atom_site_symmetry_multiplicity
 _atom_site_fract_x
 _atom_site_fract_y
 _atom_site_fract_z
 _atom_site_occupancy
  H  H0  1  0.15542724  0.84457276  0.21710604  1
  H  H1  1  0.15544366  0.31086468  0.21711179  1
  H  H2  1  0.68913532  0.84455634  0.21711179  1
  H  H3  1  0.84457276  0.15542724  0.78289396  1
  H  H4  1  0.31086468  0.15544366  0.78288821  1
  H  H5  1  0.84455634  0.68913532  0.78288821  1
  He  He6  1  0.33332234  0.66667766  0.70250564  1
  He  He7  1  0.66667766  0.33332234  0.29749436  1
  Li  Li8  1  0.00000000  -0.00000000  -0.00000000  1
