# generated using pymatgen
data_H10He18Li19
_symmetry_space_group_name_H-M   'P 1'
_cell_length_a   14.61004055
_cell_length_b   11.57357440
_cell_length_c   11.60680967
_cell_angle_alpha   71.75733220
_cell_angle_beta   56.66423535
_cell_angle_gamma   60.61306914
_symmetry_Int_Tables_number   1
_chemical_formula_structural   H10He18Li19
_chemical_formula_sum   'H10 He18 Li19'
_cell_volume   1426.15894737
_cell_formula_units_Z   1
loop_
 _symmetry_equiv_pos_site_id
 _symmetry_equiv_pos_as_xyz
  1  'x, y, z'
loop_
 _atom_site_type_symbol
 _atom_site_label
 _atom_site_symmetry_multiplicity
 _atom_site_fract_x
 _atom_site_fract_y
 _atom_site_fract_z
 _atom_site_occupancy
  H  H0  1  0.10307593  0.44791786  0.98180410  1
  H  H1  1  0.89692407  0.55208214  0.01819590  1
  H  H2  1  0.09760127  0.16715716  0.43117064  1
  H  H3  1  0.90239873  0.83284284  0.56882936  1
  H  H4  1  0.71408981  0.21623921  0.14348973  1
  H  H5  1  0.28591019  0.78376079  0.85651027  1
  H  H6  1  0.30202918  0.04299812  0.39818977  1
  H  H7  1  0.69797082  0.95700188  0.60181023  1
  H  H8  1  0.51380753  0.36481822  0.16243898  1
  H  H9  1  0.48619247  0.63518178  0.83756102  1
  He  He10  1  0.79568913  0.49977144  0.79380083  1
  He  He11  1  0.20431087  0.50022856  0.20619917  1
  He  He12  1  0.06814348  0.16948644  0.83366766  1
  He  He13  1  0.93185652  0.83051356  0.16633234  1
  He  He14  1  0.01891584  0.88413849  0.78022200  1
  He  He15  1  0.98108416  0.11586151  0.21977800  1
  He  He16  1  0.22352518  0.78147805  0.28919704  1
  He  He17  1  0.77647482  0.21852195  0.71080296  1
  He  He18  1  0.13424925  0.46458256  0.57858632  1
  He  He19  1  0.86575075  0.53541744  0.42141368  1
  He  He20  1  0.65570094  0.96280288  -0.00009013  1
  He  He21  1  0.34429906  0.03719712  0.00009013  1
  He  He22  1  0.58583902  0.85825254  0.40055551  1
  He  He23  1  0.41416098  0.14174746  0.59944449  1
  He  He24  1  0.32934063  0.61866922  0.57785990  1
  He  He25  1  0.67065937  0.38133078  0.42214010  1
  He  He26  1  0.57823966  0.66262525  0.10073407  1
  He  He27  1  0.42176034  0.33737475  0.89926593  1
  Li  Li28  1  -0.00000000  -0.00000000  0.50000000  1
  Li  Li29  1  0.10308661  0.30767095  0.20587260  1
  Li  Li30  1  0.89691339  0.69232905  0.79412740  1
  Li  Li31  1  0.21738731  0.30646440  0.77729281  1
  Li  Li32  1  0.78261269  0.69353560  0.22270719  1
  Li  Li33  1  0.17746941  0.63077715  0.93091884  1
  Li  Li34  1  0.82253059  0.36922285  0.06908116  1
  Li  Li35  1  0.99428855  0.32540750  0.62001003  1
  Li  Li36  1  0.00571145  0.67459250  0.37998997  1
  Li  Li37  1  0.27853231  0.92735852  0.63771658  1
  Li  Li38  1  0.72146769  0.07264148  0.36228342  1
  Li  Li39  1  0.40371834  0.87579991  0.22077808  1
  Li  Li40  1  0.59628166  0.12420009  0.77922192  1
  Li  Li41  1  0.41125492  0.20234110  0.29673843  1
  Li  Li42  1  0.58874508  0.79765890  0.70326157  1
  Li  Li43  1  0.81404996  0.07177441  0.94308291  1
  Li  Li44  1  0.18595004  0.92822559  0.05691709  1
  Li  Li45  1  0.42746825  0.48441976  0.37176142  1
  Li  Li46  1  0.57253175  0.51558024  0.62823858  1
