# generated using pymatgen
data_H4He5Li
_symmetry_space_group_name_H-M   'P 1'
_cell_length_a   5.30718012
_cell_length_b   5.30718012
_cell_length_c   5.30718012
_cell_angle_alpha   100.35878872
_cell_angle_beta   100.35878872
_cell_angle_gamma   129.81991589
_symmetry_Int_Tables_number   1
_chemical_formula_structural   H4He5Li
_chemical_formula_sum   'H4 He5 Li1'
_cell_volume   103.97860413
_cell_formula_units_Z   1
loop_
 _symmetry_equiv_pos_site_id
 _symmetry_equiv_pos_as_xyz
  1  'x, y, z'
loop_
 _atom_site_type_symbol
 _atom_site_label
 _atom_site_symmetry_multiplicity
 _atom_site_fract_x
 _atom_site_fract_y
 _atom_site_fract_z
 _atom_site_occupancy
  H  H0  1  0.41422645  0.18722778  0.60145422  1
  H  H1  1  0.58577355  0.81277222  0.39854578  1
  H  H2  1  0.18722778  0.58577355  0.77300133  1
  H  H3  1  0.81277222  0.41422645  0.22699867  1
  He  He4  1  0.50000000  0.50000000  -0.00000000  1
  He  He5  1  0.08955496  0.28738698  0.37694195  1
  He  He6  1  0.91044504  0.71261302  0.62305805  1
  He  He7  1  0.28738698  0.91044504  0.19783202  1
  He  He8  1  0.71261302  0.08955496  0.80216798  1
  Li  Li9  1  0.00000000  0.00000000  0.00000000  1
