# generated using pymatgen
data_HHe
_symmetry_space_group_name_H-M   'P 1'
_cell_length_a   3.09339031
_cell_length_b   3.09342893
_cell_length_c   10.12576649
_cell_angle_alpha   90.00000000
_cell_angle_beta   90.00000000
_cell_angle_gamma   119.99958703
_symmetry_Int_Tables_number   1
_chemical_formula_structural   HHe
_chemical_formula_sum   'H4 He4'
_cell_volume   83.91415212
_cell_formula_units_Z   4
loop_
 _symmetry_equiv_pos_site_id
 _symmetry_equiv_pos_as_xyz
  1  'x, y, z'
loop_
 _atom_site_type_symbol
 _atom_site_label
 _atom_site_symmetry_multiplicity
 _atom_site_fract_x
 _atom_site_fract_y
 _atom_site_fract_z
 _atom_site_occupancy
  H  H0  1  0.99998729  0.99997457  0.00019437  1
  H  H1  1  0.00001271  0.00002543  0.50019437  1
  H  H2  1  0.66668461  0.33336922  0.24957521  1
  H  H3  1  0.33331539  0.66663078  0.74957521  1
  He  He4  1  0.00001274  0.00002547  0.18764075  1
  He  He5  1  0.99998726  0.99997453  0.68764075  1
  He  He6  1  0.66668417  0.33336833  0.43758968  1
  He  He7  1  0.33331583  0.66663167  0.93758968  1
