# generated using pymatgen
data_HHeLi3
_symmetry_space_group_name_H-M   'P 1'
_cell_length_a   6.67998414
_cell_length_b   6.67998414
_cell_length_c   6.67998414
_cell_angle_alpha   90.00000000
_cell_angle_beta   90.00000000
_cell_angle_gamma   90.00000000
_symmetry_Int_Tables_number   1
_chemical_formula_structural   HHeLi3
_chemical_formula_sum   'H4 He4 Li12'
_cell_volume   298.07550821
_cell_formula_units_Z   4
loop_
 _symmetry_equiv_pos_site_id
 _symmetry_equiv_pos_as_xyz
  1  'x, y, z'
loop_
 _atom_site_type_symbol
 _atom_site_label
 _atom_site_symmetry_multiplicity
 _atom_site_fract_x
 _atom_site_fract_y
 _atom_site_fract_z
 _atom_site_occupancy
  H  H0  1  0.41798476  0.41798476  0.41798476  1
  H  H1  1  0.08201524  0.58201524  0.91798476  1
  H  H2  1  0.58201524  0.91798476  0.08201524  1
  H  H3  1  0.91798476  0.08201524  0.58201524  1
  He  He4  1  0.06795305  0.06795305  0.06795305  1
  He  He5  1  0.43204695  0.93204695  0.56795305  1
  He  He6  1  0.93204695  0.56795305  0.43204695  1
  He  He7  1  0.56795305  0.43204695  0.93204695  1
  Li  Li8  1  0.30418351  0.59420914  0.50154717  1
  Li  Li9  1  0.19581649  0.40579086  0.00154717  1
  Li  Li10  1  0.69581649  0.09420914  0.99845283  1
  Li  Li11  1  0.80418351  0.90579086  0.49845283  1
  Li  Li12  1  0.50154717  0.30418351  0.59420914  1
  Li  Li13  1  0.00154717  0.19581649  0.40579086  1
  Li  Li14  1  0.99845283  0.69581649  0.09420914  1
  Li  Li15  1  0.49845283  0.80418351  0.90579086  1
  Li  Li16  1  0.59420914  0.50154717  0.30418351  1
  Li  Li17  1  0.40579086  0.00154717  0.19581649  1
  Li  Li18  1  0.09420914  0.99845283  0.69581649  1
  Li  Li19  1  0.90579086  0.49845283  0.80418351  1
