# generated using pymatgen
data_HHeLi3
_symmetry_space_group_name_H-M   'P 1'
_cell_length_a   6.88818664
_cell_length_b   6.88818664
_cell_length_c   22.73394700
_cell_angle_alpha   90.00000000
_cell_angle_beta   90.00000000
_cell_angle_gamma   120.00000000
_symmetry_Int_Tables_number   1
_chemical_formula_structural   HHeLi3
_chemical_formula_sum   'H6 He6 Li18'
_cell_volume   934.14713666
_cell_formula_units_Z   6
loop_
 _symmetry_equiv_pos_site_id
 _symmetry_equiv_pos_as_xyz
  1  'x, y, z'
loop_
 _atom_site_type_symbol
 _atom_site_label
 _atom_site_symmetry_multiplicity
 _atom_site_fract_x
 _atom_site_fract_y
 _atom_site_fract_z
 _atom_site_occupancy
  H  H0  1  -0.00000000  -0.00000000  0.33361958  1
  H  H1  1  0.00000000  0.00000000  0.66638042  1
  H  H2  1  0.33333333  0.66666667  0.66695068  1
  H  H3  1  0.33333333  0.66666667  0.99977143  1
  H  H4  1  0.66666667  0.33333333  0.00022857  1
  H  H5  1  0.66666667  0.33333333  0.33304932  1
  He  He6  1  -0.00000000  -0.00000000  0.05037385  1
  He  He7  1  0.00000000  0.00000000  0.94962615  1
  He  He8  1  0.33333333  0.66666667  0.38371711  1
  He  He9  1  0.33333333  0.66666667  0.28297063  1
  He  He10  1  0.66666667  0.33333333  0.71702937  1
  He  He11  1  0.66666667  0.33333333  0.61628289  1
  Li  Li12  1  0.97611012  0.30845496  0.25520364  1
  Li  Li13  1  0.69154504  0.66765516  0.25520364  1
  Li  Li14  1  0.33234484  0.02388988  0.25520364  1
  Li  Li15  1  0.02388988  0.69154504  0.74479636  1
  Li  Li16  1  0.30845496  0.33234484  0.74479636  1
  Li  Li17  1  0.66765516  0.97611012  0.74479636  1
  Li  Li18  1  0.30941750  0.97509524  0.58854395  1
  Li  Li19  1  0.02490476  0.33432226  0.58854395  1
  Li  Li20  1  0.66567774  0.69058250  0.58854395  1
  Li  Li21  1  0.35731380  0.35815553  0.07812729  1
  Li  Li22  1  0.64184447  0.99915826  0.07812729  1
  Li  Li23  1  0.00084174  0.64268620  0.07812729  1
  Li  Li24  1  0.64268620  0.64184447  0.92187271  1
  Li  Li25  1  0.35815553  0.00084174  0.92187271  1
  Li  Li26  1  0.99915826  0.35731380  0.92187271  1
  Li  Li27  1  0.69058250  0.02490476  0.41145605  1
  Li  Li28  1  0.97509524  0.66567774  0.41145605  1
  Li  Li29  1  0.33432226  0.30941750  0.41145605  1
