# generated using pymatgen
data_H3He
_symmetry_space_group_name_H-M   'P 1'
_cell_length_a   7.48025914
_cell_length_b   7.47977781
_cell_length_c   4.23071996
_cell_angle_alpha   90.00000000
_cell_angle_beta   90.00000000
_cell_angle_gamma   119.98997348
_symmetry_Int_Tables_number   1
_chemical_formula_structural   H3He
_chemical_formula_sum   'H6 He2'
_cell_volume   205.01900469
_cell_formula_units_Z   2
loop_
 _symmetry_equiv_pos_site_id
 _symmetry_equiv_pos_as_xyz
  1  'x, y, z'
loop_
 _atom_site_type_symbol
 _atom_site_label
 _atom_site_symmetry_multiplicity
 _atom_site_fract_x
 _atom_site_fract_y
 _atom_site_fract_z
 _atom_site_occupancy
  H  H0  1  0.38968197  0.30348810  0.25000000  1
  H  H1  1  0.69648945  0.08630030  0.25000000  1
  H  H2  1  0.91375084  0.61017357  0.25000000  1
  H  H3  1  0.61031803  0.69651190  0.75000000  1
  H  H4  1  0.30351055  0.91369970  0.75000000  1
  H  H5  1  0.08624916  0.38982643  0.75000000  1
  He  He6  1  0.33339791  0.66668501  0.25000000  1
  He  He7  1  0.66660209  0.33331499  0.75000000  1
