# generated using pymatgen
data_H4He
_symmetry_space_group_name_H-M   'P 1'
_cell_length_a   7.12009269
_cell_length_b   7.12009269
_cell_length_c   7.12009269
_cell_angle_alpha   107.41910236
_cell_angle_beta   107.41910236
_cell_angle_gamma   113.65835718
_symmetry_Int_Tables_number   1
_chemical_formula_structural   H4He
_chemical_formula_sum   'H8 He2'
_cell_volume   276.74426902
_cell_formula_units_Z   2
loop_
 _symmetry_equiv_pos_site_id
 _symmetry_equiv_pos_as_xyz
  1  'x, y, z'
loop_
 _atom_site_type_symbol
 _atom_site_label
 _atom_site_symmetry_multiplicity
 _atom_site_fract_x
 _atom_site_fract_y
 _atom_site_fract_z
 _atom_site_occupancy
  H  H0  1  0.93272553  0.62112943  0.68840390  1
  H  H1  1  0.93272553  0.24432163  0.31159610  1
  H  H2  1  0.87112943  0.68272553  0.18840390  1
  H  H3  1  0.49432163  0.68272553  0.81159610  1
  H  H4  1  0.31727447  0.50567837  0.18840390  1
  H  H5  1  0.31727447  0.12887057  0.81159610  1
  H  H6  1  0.37887057  0.06727447  0.31159610  1
  H  H7  1  0.75567837  0.06727447  0.68840390  1
  He  He8  1  0.00000000  -0.00000000  0.00000000  1
  He  He9  1  0.25000000  0.75000000  0.50000000  1
