# generated using pymatgen
data_HHeLi4
_symmetry_space_group_name_H-M   'P 1'
_cell_length_a   5.79078481
_cell_length_b   7.38386679
_cell_length_c   9.17295023
_cell_angle_alpha   90.00000000
_cell_angle_beta   90.00000000
_cell_angle_gamma   90.00000000
_symmetry_Int_Tables_number   1
_chemical_formula_structural   HHeLi4
_chemical_formula_sum   'H4 He4 Li16'
_cell_volume   392.22052502
_cell_formula_units_Z   4
loop_
 _symmetry_equiv_pos_site_id
 _symmetry_equiv_pos_as_xyz
  1  'x, y, z'
loop_
 _atom_site_type_symbol
 _atom_site_label
 _atom_site_symmetry_multiplicity
 _atom_site_fract_x
 _atom_site_fract_y
 _atom_site_fract_z
 _atom_site_occupancy
  H  H0  1  0.75000000  0.80532371  0.06586474  1
  H  H1  1  0.25000000  0.30532371  0.43413526  1
  H  H2  1  0.25000000  0.19467629  0.93413526  1
  H  H3  1  0.75000000  0.69467629  0.56586474  1
  He  He4  1  0.75000000  0.33654383  0.18614530  1
  He  He5  1  0.25000000  0.83654383  0.31385470  1
  He  He6  1  0.25000000  0.66345617  0.81385470  1
  He  He7  1  0.75000000  0.16345617  0.68614530  1
  Li  Li8  1  0.75000000  0.94271967  0.18066874  1
  Li  Li9  1  0.25000000  0.44271967  0.31933126  1
  Li  Li10  1  0.25000000  0.05728033  0.81933126  1
  Li  Li11  1  0.75000000  0.55728033  0.68066874  1
  Li  Li12  1  0.75000000  0.88927943  0.92278760  1
  Li  Li13  1  0.25000000  0.38927943  0.57721240  1
  Li  Li14  1  0.25000000  0.11072057  0.07721240  1
  Li  Li15  1  0.75000000  0.61072057  0.42278760  1
  Li  Li16  1  0.95609056  0.69072956  0.08198242  1
  Li  Li17  1  0.04390944  0.19072956  0.41801758  1
  Li  Li18  1  0.45609056  0.30927044  0.91801758  1
  Li  Li19  1  0.54390944  0.80927044  0.58198242  1
  Li  Li20  1  0.04390944  0.30927044  0.91801758  1
  Li  Li21  1  0.95609056  0.80927044  0.58198242  1
  Li  Li22  1  0.54390944  0.69072956  0.08198242  1
  Li  Li23  1  0.45609056  0.19072956  0.41801758  1
