# generated using pymatgen
data_HHe4Li2
_symmetry_space_group_name_H-M   'P 1'
_cell_length_a   7.29825574
_cell_length_b   7.29825574
_cell_length_c   4.09540601
_cell_angle_alpha   90.00000000
_cell_angle_beta   90.00000000
_cell_angle_gamma   146.88647819
_symmetry_Int_Tables_number   1
_chemical_formula_structural   HHe4Li2
_chemical_formula_sum   'H1 He4 Li2'
_cell_volume   119.16975276
_cell_formula_units_Z   1
loop_
 _symmetry_equiv_pos_site_id
 _symmetry_equiv_pos_as_xyz
  1  'x, y, z'
loop_
 _atom_site_type_symbol
 _atom_site_label
 _atom_site_symmetry_multiplicity
 _atom_site_fract_x
 _atom_site_fract_y
 _atom_site_fract_z
 _atom_site_occupancy
  H  H0  1  0.00000000  0.00000000  0.00000000  1
  He  He1  1  0.81328658  0.18671342  0.50000000  1
  He  He2  1  0.18671342  0.81328658  0.50000000  1
  He  He3  1  0.69446897  0.30553103  0.00000000  1
  He  He4  1  0.30553103  0.69446897  -0.00000000  1
  Li  Li5  1  0.58719302  0.41280698  0.50000000  1
  Li  Li6  1  0.41280698  0.58719302  0.50000000  1
