# generated using pymatgen
data_HHe4Li2
_symmetry_space_group_name_H-M   'P 1'
_cell_length_a   13.10408410
_cell_length_b   13.10408410
_cell_length_c   5.24329027
_cell_angle_alpha   90.00000000
_cell_angle_beta   90.00000000
_cell_angle_gamma   90.00000000
_symmetry_Int_Tables_number   1
_chemical_formula_structural   HHe4Li2
_chemical_formula_sum   'H8 He32 Li16'
_cell_volume   900.36218051
_cell_formula_units_Z   8
loop_
 _symmetry_equiv_pos_site_id
 _symmetry_equiv_pos_as_xyz
  1  'x, y, z'
loop_
 _atom_site_type_symbol
 _atom_site_label
 _atom_site_symmetry_multiplicity
 _atom_site_fract_x
 _atom_site_fract_y
 _atom_site_fract_z
 _atom_site_occupancy
  H  H0  1  0.30638317  0.27085421  0.26076085  1
  H  H1  1  0.69361683  0.72914579  0.26076085  1
  H  H2  1  0.27085421  0.69361683  0.73923915  1
  H  H3  1  0.72914579  0.30638317  0.73923915  1
  H  H4  1  0.19361683  0.77085421  0.23923915  1
  H  H5  1  0.80638317  0.22914579  0.23923915  1
  H  H6  1  0.22914579  0.19361683  0.76076085  1
  H  H7  1  0.77085421  0.80638317  0.76076085  1
  He  He8  1  0.31502735  0.41231379  0.15477882  1
  He  He9  1  0.68497265  0.58768621  0.15477882  1
  He  He10  1  0.41231379  0.68497265  0.84522118  1
  He  He11  1  0.58768621  0.31502735  0.84522118  1
  He  He12  1  0.18497265  0.91231379  0.34522118  1
  He  He13  1  0.81502735  0.08768621  0.34522118  1
  He  He14  1  0.08768621  0.18497265  0.65477882  1
  He  He15  1  0.91231379  0.81502735  0.65477882  1
  He  He16  1  0.28016933  0.14122262  0.43367555  1
  He  He17  1  0.71983067  0.85877738  0.43367555  1
  He  He18  1  0.14122262  0.71983067  0.56632445  1
  He  He19  1  0.85877738  0.28016933  0.56632445  1
  He  He20  1  0.21983067  0.64122262  0.06632445  1
  He  He21  1  0.78016933  0.35877738  0.06632445  1
  He  He22  1  0.35877738  0.21983067  0.93367555  1
  He  He23  1  0.64122262  0.78016933  0.93367555  1
  He  He24  1  0.32367881  0.75614165  0.42651113  1
  He  He25  1  0.67632119  0.24385835  0.42651113  1
  He  He26  1  0.75614165  0.67632119  0.57348887  1
  He  He27  1  0.24385835  0.32367881  0.57348887  1
  He  He28  1  0.17632119  0.25614165  0.07348887  1
  He  He29  1  0.82367881  0.74385835  0.07348887  1
  He  He30  1  0.74385835  0.17632119  0.92651113  1
  He  He31  1  0.25614165  0.82367881  0.92651113  1
  He  He32  1  0.27392890  0.55787632  0.59927733  1
  He  He33  1  0.72607110  0.44212368  0.59927733  1
  He  He34  1  0.55787632  0.72607110  0.40072267  1
  He  He35  1  0.44212368  0.27392890  0.40072267  1
  He  He36  1  0.22607110  0.05787632  0.90072267  1
  He  He37  1  0.77392890  0.94212368  0.90072267  1
  He  He38  1  0.94212368  0.22607110  0.09927733  1
  He  He39  1  0.05787632  0.77392890  0.09927733  1
  Li  Li40  1  0.07962262  0.12334448  0.24320248  1
  Li  Li41  1  0.92037738  0.87665552  0.24320248  1
  Li  Li42  1  0.12334448  0.92037738  0.75679752  1
  Li  Li43  1  0.87665552  0.07962262  0.75679752  1
  Li  Li44  1  0.42037738  0.62334448  0.25679752  1
  Li  Li45  1  0.57962262  0.37665552  0.25679752  1
  Li  Li46  1  0.37665552  0.42037738  0.74320248  1
  Li  Li47  1  0.62334448  0.57962262  0.74320248  1
  Li  Li48  1  0.00592921  0.32712991  0.79298616  1
  Li  Li49  1  0.99407079  0.67287009  0.79298616  1
  Li  Li50  1  0.32712991  0.99407079  0.20701384  1
  Li  Li51  1  0.67287009  0.00592921  0.20701384  1
  Li  Li52  1  0.49407079  0.82712991  0.70701384  1
  Li  Li53  1  0.50592921  0.17287009  0.70701384  1
  Li  Li54  1  0.17287009  0.49407079  0.29298616  1
  Li  Li55  1  0.82712991  0.50592921  0.29298616  1
