# generated using pymatgen
data_HHeLi3
_symmetry_space_group_name_H-M   'P 1'
_cell_length_a   5.61535570
_cell_length_b   5.64695496
_cell_length_c   15.88877085
_cell_angle_alpha   90.00000000
_cell_angle_beta   90.00000000
_cell_angle_gamma   90.00000000
_symmetry_Int_Tables_number   1
_chemical_formula_structural   HHeLi3
_chemical_formula_sum   'H8 He8 Li24'
_cell_volume   503.82753226
_cell_formula_units_Z   8
loop_
 _symmetry_equiv_pos_site_id
 _symmetry_equiv_pos_as_xyz
  1  'x, y, z'
loop_
 _atom_site_type_symbol
 _atom_site_label
 _atom_site_symmetry_multiplicity
 _atom_site_fract_x
 _atom_site_fract_y
 _atom_site_fract_z
 _atom_site_occupancy
  H  H0  1  0.75759900  0.23358413  0.75000000  1
  H  H1  1  0.24240100  0.76641587  0.25000000  1
  H  H2  1  0.24240100  0.73358413  0.75000000  1
  H  H3  1  0.75759900  0.26641587  0.25000000  1
  H  H4  1  0.75759382  0.25000000  0.50000000  1
  H  H5  1  0.24240618  0.75000000  0.00000000  1
  H  H6  1  0.24240618  0.75000000  0.50000000  1
  H  H7  1  0.75759382  0.25000000  0.00000000  1
  He  He8  1  0.74589411  0.73261277  0.62503277  1
  He  He9  1  0.25410589  0.26738723  0.12503277  1
  He  He10  1  0.25410589  0.23261277  0.87496723  1
  He  He11  1  0.74589411  0.76738723  0.37496723  1
  He  He12  1  0.25410589  0.26738723  0.37496723  1
  He  He13  1  0.74589411  0.73261277  0.87496723  1
  He  He14  1  0.74589411  0.76738723  0.12503277  1
  He  He15  1  0.25410589  0.23261277  0.62503277  1
  Li  Li16  1  0.71066454  0.76580323  0.75000000  1
  Li  Li17  1  0.28933546  0.23419677  0.25000000  1
  Li  Li18  1  0.28933546  0.26580323  0.75000000  1
  Li  Li19  1  0.71066454  0.73419677  0.25000000  1
  Li  Li20  1  0.79206403  0.75000000  0.50000000  1
  Li  Li21  1  0.20793597  0.25000000  -0.00000000  1
  Li  Li22  1  0.20793597  0.25000000  0.50000000  1
  Li  Li23  1  0.79206403  0.75000000  -0.00000000  1
  Li  Li24  1  0.46191835  0.54273620  0.61464370  1
  Li  Li25  1  0.53808165  0.45726380  0.11464370  1
  Li  Li26  1  0.53808165  0.04273620  0.88535630  1
  Li  Li27  1  0.46191835  0.95726380  0.38535630  1
  Li  Li28  1  0.53808165  0.45726380  0.38535630  1
  Li  Li29  1  0.46191835  0.54273620  0.88535630  1
  Li  Li30  1  0.46191835  0.95726380  0.11464370  1
  Li  Li31  1  0.53808165  0.04273620  0.61464370  1
  Li  Li32  1  0.96266992  0.46991036  0.63554351  1
  Li  Li33  1  0.03733008  0.53008964  0.13554351  1
  Li  Li34  1  0.03733008  0.96991036  0.86445649  1
  Li  Li35  1  0.96266992  0.03008964  0.36445649  1
  Li  Li36  1  0.03733008  0.53008964  0.36445649  1
  Li  Li37  1  0.96266992  0.46991036  0.86445649  1
  Li  Li38  1  0.96266992  0.03008964  0.13554351  1
  Li  Li39  1  0.03733008  0.96991036  0.63554351  1
