# generated using pymatgen
data_H2HeLi3
_symmetry_space_group_name_H-M   'P 1'
_cell_length_a   8.13514939
_cell_length_b   8.13512731
_cell_length_c   7.77263107
_cell_angle_alpha   90.00000000
_cell_angle_beta   90.00000000
_cell_angle_gamma   120.00008976
_symmetry_Int_Tables_number   1
_chemical_formula_structural   H2HeLi3
_chemical_formula_sum   'H8 He4 Li12'
_cell_volume   445.47996778
_cell_formula_units_Z   4
loop_
 _symmetry_equiv_pos_site_id
 _symmetry_equiv_pos_as_xyz
  1  'x, y, z'
loop_
 _atom_site_type_symbol
 _atom_site_label
 _atom_site_symmetry_multiplicity
 _atom_site_fract_x
 _atom_site_fract_y
 _atom_site_fract_z
 _atom_site_occupancy
  H  H0  1  0.00000047  0.00000093  0.25000000  1
  H  H1  1  -0.00000047  -0.00000093  0.75000000  1
  H  H2  1  0.01820652  0.50910288  0.25000000  1
  H  H3  1  0.49089636  0.50910288  0.25000000  1
  H  H4  1  0.49089591  0.98179183  0.25000000  1
  H  H5  1  0.98179348  0.49089712  0.75000000  1
  H  H6  1  0.50910364  0.49089712  0.75000000  1
  H  H7  1  0.50910409  0.01820817  0.75000000  1
  He  He8  1  0.66666566  0.33333132  0.03331857  1
  He  He9  1  0.33333434  0.66666868  0.53331857  1
  He  He10  1  0.33333434  0.66666868  0.96668143  1
  He  He11  1  0.66666566  0.33333132  0.46668143  1
  Li  Li12  1  0.33390862  0.16695420  0.00178468  1
  Li  Li13  1  0.83304558  0.16695420  0.00178468  1
  Li  Li14  1  0.83304500  0.66609000  0.00178519  1
  Li  Li15  1  0.66609138  0.83304580  0.50178468  1
  Li  Li16  1  0.16695442  0.83304580  0.50178468  1
  Li  Li17  1  0.16695500  0.33391000  0.50178519  1
  Li  Li18  1  0.16695442  0.83304580  0.99821532  1
  Li  Li19  1  0.66609138  0.83304580  0.99821532  1
  Li  Li20  1  0.16695500  0.33391000  0.99821481  1
  Li  Li21  1  0.83304558  0.16695420  0.49821532  1
  Li  Li22  1  0.33390862  0.16695420  0.49821532  1
  Li  Li23  1  0.83304500  0.66609000  0.49821481  1
