# generated using pymatgen
data_HHe10Li9Be
_symmetry_space_group_name_H-M   'P 1'
_cell_length_a   6.04271109
_cell_length_b   5.99203122
_cell_length_c   11.00097697
_cell_angle_alpha   82.55517417
_cell_angle_beta   77.73083873
_cell_angle_gamma   72.82734605
_symmetry_Int_Tables_number   1
_chemical_formula_structural   HHe10Li9Be
_chemical_formula_sum   'H2 He20 Li18 Be2'
_cell_volume   370.92098063
_cell_formula_units_Z   2
loop_
 _symmetry_equiv_pos_site_id
 _symmetry_equiv_pos_as_xyz
  1  'x, y, z'
loop_
 _atom_site_type_symbol
 _atom_site_label
 _atom_site_symmetry_multiplicity
 _atom_site_fract_x
 _atom_site_fract_y
 _atom_site_fract_z
 _atom_site_occupancy
  H  H0  1  -0.00000000  -0.00000000  0.00000000  1
  H  H1  1  0.50000000  0.00000000  0.50000000  1
  He  He2  1  0.70973483  0.06133926  0.20117347  1
  He  He3  1  0.29026517  0.93866074  0.79882653  1
  He  He4  1  0.67535063  0.32159944  0.12850460  1
  He  He5  1  0.32464937  0.67840056  0.87149540  1
  He  He6  1  0.28366259  0.24226275  0.00239637  1
  He  He7  1  0.71633741  0.75773725  0.99760363  1
  He  He8  1  0.10889672  0.25509503  0.13639891  1
  He  He9  1  0.89110328  0.74490497  0.86360109  1
  He  He10  1  0.31291803  0.66093525  0.62455509  1
  He  He11  1  0.68708197  0.33906475  0.37544491  1
  He  He12  1  0.60248162  0.57002696  0.60776956  1
  He  He13  1  0.39751838  0.42997304  0.39223044  1
  He  He14  1  0.80475908  0.12012461  0.59669233  1
  He  He15  1  0.19524092  0.87987539  0.40330767  1
  He  He16  1  0.85474580  0.83776709  0.62179572  1
  He  He17  1  0.14525420  0.16223291  0.37820428  1
  He  He18  1  0.40447353  0.65481142  0.13251608  1
  He  He19  1  0.59552647  0.34518858  0.86748392  1
  He  He20  1  0.60643256  0.68851395  0.19461674  1
  He  He21  1  0.39356744  0.31148605  0.80538326  1
  Li  Li22  1  0.96940189  0.37668470  0.29612446  1
  Li  Li23  1  0.03059811  0.62331530  0.70387554  1
  Li  Li24  1  0.75896267  0.79063689  0.30619299  1
  Li  Li25  1  0.24103733  0.20936311  0.69380701  1
  Li  Li26  1  0.14329465  0.63760405  0.37279603  1
  Li  Li27  1  0.85670535  0.36239595  0.62720397  1
  Li  Li28  1  0.11691032  0.66678352  0.15197267  1
  Li  Li29  1  0.88308968  0.33321648  0.84802733  1
  Li  Li30  1  0.71017822  0.14927394  0.11836166  1
  Li  Li31  1  0.28982178  0.85072606  0.88163834  1
  Li  Li32  1  0.19386071  0.15245578  0.06821574  1
  Li  Li33  1  0.80613929  0.84754422  0.93178426  1
  Li  Li34  1  0.46262460  0.70524178  0.59784568  1
  Li  Li35  1  0.53737540  0.29475822  0.40215432  1
  Li  Li36  1  0.76969998  0.97916294  0.57473794  1
  Li  Li37  1  0.23030002  0.02083706  0.42526206  1
  Li  Li38  1  0.57962600  0.61917107  0.12418278  1
  Li  Li39  1  0.42037400  0.38082893  0.87581722  1
  Be  Be40  1  0.99773302  0.62139036  0.28209391  1
  Be  Be41  1  0.00226698  0.37860964  0.71790609  1
