# generated using pymatgen
data_H12He20Li
_symmetry_space_group_name_H-M   'P 1'
_cell_length_a   8.89134943
_cell_length_b   8.89134943
_cell_length_c   8.89134943
_cell_angle_alpha   109.47122063
_cell_angle_beta   109.47122063
_cell_angle_gamma   109.47122063
_symmetry_Int_Tables_number   1
_chemical_formula_structural   H12He20Li
_chemical_formula_sum   'H12 He20 Li1'
_cell_volume   541.10449778
_cell_formula_units_Z   1
loop_
 _symmetry_equiv_pos_site_id
 _symmetry_equiv_pos_as_xyz
  1  'x, y, z'
loop_
 _atom_site_type_symbol
 _atom_site_label
 _atom_site_symmetry_multiplicity
 _atom_site_fract_x
 _atom_site_fract_y
 _atom_site_fract_z
 _atom_site_occupancy
  H  H0  1  0.69861067  0.50562136  0.83860135  1
  H  H1  1  0.33297999  0.49437864  0.19298931  1
  H  H2  1  0.66702001  0.86000932  0.16139865  1
  H  H3  1  0.30138933  0.13999068  0.80701069  1
  H  H4  1  0.13999068  0.80701069  0.30138933  1
  H  H5  1  0.86000932  0.16139865  0.66702001  1
  H  H6  1  0.49437864  0.19298931  0.33297999  1
  H  H7  1  0.50562136  0.83860135  0.69861067  1
  H  H8  1  0.16139865  0.66702001  0.86000932  1
  H  H9  1  0.80701069  0.30138933  0.13999068  1
  H  H10  1  0.83860135  0.69861067  0.50562136  1
  H  H11  1  0.19298931  0.33297999  0.49437864  1
  He  He12  1  0.23500869  0.61594260  0.35499122  1
  He  He13  1  0.73904862  0.38405740  0.61906609  1
  He  He14  1  0.26095138  0.88001747  0.64500878  1
  He  He15  1  0.76499131  0.11998253  0.38093391  1
  He  He16  1  0.11998253  0.38093391  0.76499131  1
  He  He17  1  0.88001747  0.64500878  0.26095138  1
  He  He18  1  0.38405740  0.61906609  0.73904862  1
  He  He19  1  0.61594260  0.35499122  0.23500869  1
  He  He20  1  0.64500878  0.26095138  0.88001747  1
  He  He21  1  0.38093391  0.76499131  0.11998253  1
  He  He22  1  0.35499122  0.23500869  0.61594260  1
  He  He23  1  0.61906609  0.73904862  0.38405740  1
  He  He24  1  0.00000000  0.60537207  0.00000000  1
  He  He25  1  0.39462793  0.39462793  0.39462793  1
  He  He26  1  0.60537207  0.00000000  -0.00000000  1
  He  He27  1  0.00000000  0.00000000  0.60537207  1
  He  He28  1  0.00000000  0.18778225  0.00000000  1
  He  He29  1  0.81221775  0.81221775  0.81221775  1
  He  He30  1  0.18778225  0.00000000  0.00000000  1
  He  He31  1  0.00000000  0.00000000  0.18778225  1
  Li  Li32  1  0.00000000  0.00000000  0.00000000  1
