# generated using pymatgen
data_HHe
_symmetry_space_group_name_H-M   'P 1'
_cell_length_a   3.30478680
_cell_length_b   3.30495562
_cell_length_c   6.70146942
_cell_angle_alpha   90.00000000
_cell_angle_beta   90.00000000
_cell_angle_gamma   119.99831025
_symmetry_Int_Tables_number   1
_chemical_formula_structural   HHe
_chemical_formula_sum   'H2 He2'
_cell_volume   63.38947357
_cell_formula_units_Z   2
loop_
 _symmetry_equiv_pos_site_id
 _symmetry_equiv_pos_as_xyz
  1  'x, y, z'
loop_
 _atom_site_type_symbol
 _atom_site_label
 _atom_site_symmetry_multiplicity
 _atom_site_fract_x
 _atom_site_fract_y
 _atom_site_fract_z
 _atom_site_occupancy
  H  H0  1  -0.00000000  0.00000000  0.00000000  1
  H  H1  1  0.00000000  -0.00000000  0.50000000  1
  He  He2  1  0.66667842  0.33335685  0.25000000  1
  He  He3  1  0.33332158  0.66664315  0.75000000  1
