# generated using pymatgen
data_H2He2Li
_symmetry_space_group_name_H-M   'P 1'
_cell_length_a   3.30265079
_cell_length_b   3.30265079
_cell_length_c   5.48124395
_cell_angle_alpha   90.00097780
_cell_angle_beta   89.99902220
_cell_angle_gamma   120.00062027
_symmetry_Int_Tables_number   1
_chemical_formula_structural   H2He2Li
_chemical_formula_sum   'H2 He2 Li1'
_cell_volume   51.77646070
_cell_formula_units_Z   1
loop_
 _symmetry_equiv_pos_site_id
 _symmetry_equiv_pos_as_xyz
  1  'x, y, z'
loop_
 _atom_site_type_symbol
 _atom_site_label
 _atom_site_symmetry_multiplicity
 _atom_site_fract_x
 _atom_site_fract_y
 _atom_site_fract_z
 _atom_site_occupancy
  H  H0  1  0.33333284  0.66666716  0.61708046  1
  H  H1  1  0.66666716  0.33333284  0.38291954  1
  He  He2  1  0.33333947  0.66666053  0.22389559  1
  He  He3  1  0.66666053  0.33333947  0.77610441  1
  Li  Li4  1  0.00000000  0.00000000  0.00000000  1
