# generated using pymatgen
data_HHeLiBe5B
_symmetry_space_group_name_H-M   'P 1'
_cell_length_a   7.71786273
_cell_length_b   4.91850102
_cell_length_c   9.70924097
_cell_angle_alpha   89.87382092
_cell_angle_beta   90.00000000
_cell_angle_gamma   90.00000000
_symmetry_Int_Tables_number   1
_chemical_formula_structural   HHeLiBe5B
_chemical_formula_sum   'H4 He4 Li4 Be20 B4'
_cell_volume   368.56495905
_cell_formula_units_Z   4
loop_
 _symmetry_equiv_pos_site_id
 _symmetry_equiv_pos_as_xyz
  1  'x, y, z'
loop_
 _atom_site_type_symbol
 _atom_site_label
 _atom_site_symmetry_multiplicity
 _atom_site_fract_x
 _atom_site_fract_y
 _atom_site_fract_z
 _atom_site_occupancy
  H  H0  1  0.40898220  0.43352213  0.34040200  1
  H  H1  1  0.90898220  0.56647787  0.15959800  1
  H  H2  1  0.59101780  0.56647787  0.65959800  1
  H  H3  1  0.09101780  0.43352213  0.84040200  1
  He  He4  1  0.10392359  0.01030420  0.33745090  1
  He  He5  1  0.60392359  0.98969580  0.16254910  1
  He  He6  1  0.89607641  0.98969580  0.66254910  1
  He  He7  1  0.39607641  0.01030420  0.83745090  1
  Li  Li8  1  0.45993930  0.80255933  0.42575811  1
  Li  Li9  1  0.95993930  0.19744067  0.07424189  1
  Li  Li10  1  0.54006070  0.19744067  0.57424189  1
  Li  Li11  1  0.04006070  0.80255933  0.92575811  1
  Be  Be12  1  0.39774115  0.76477983  0.03823419  1
  Be  Be13  1  0.89774115  0.23522017  0.46176581  1
  Be  Be14  1  0.60225885  0.23522017  0.96176581  1
  Be  Be15  1  0.10225885  0.76477983  0.53823419  1
  Be  Be16  1  0.29917770  0.33404541  0.45652332  1
  Be  Be17  1  0.79917770  0.66595459  0.04347668  1
  Be  Be18  1  0.70082230  0.66595459  0.54347668  1
  Be  Be19  1  0.20082230  0.33404541  0.95652332  1
  Be  Be20  1  0.33371429  0.33043713  0.21022649  1
  Be  Be21  1  0.83371429  0.66956287  0.28977351  1
  Be  Be22  1  0.66628571  0.66956287  0.78977351  1
  Be  Be23  1  0.16628571  0.33043713  0.71022649  1
  Be  Be24  1  0.08458482  0.68617871  0.14566322  1
  Be  Be25  1  0.58458482  0.31382129  0.35433678  1
  Be  Be26  1  0.91541518  0.31382129  0.85433678  1
  Be  Be27  1  0.41541518  0.68617871  0.64566322  1
  Be  Be28  1  0.41449151  0.73876283  0.33723523  1
  Be  Be29  1  0.91449151  0.26123717  0.16276477  1
  Be  Be30  1  0.58550849  0.26123717  0.66276477  1
  Be  Be31  1  0.08550849  0.73876283  0.83723523  1
  B  B32  1  0.26356241  0.53531909  0.08471060  1
  B  B33  1  0.76356241  0.46468091  0.41528940  1
  B  B34  1  0.73643759  0.46468091  0.91528940  1
  B  B35  1  0.23643759  0.53531909  0.58471060  1
