# generated using pymatgen
data_H3HeLi2
_symmetry_space_group_name_H-M   'P 1'
_cell_length_a   8.82943104
_cell_length_b   8.71235740
_cell_length_c   6.34724133
_cell_angle_alpha   69.77559904
_cell_angle_beta   67.80505365
_cell_angle_gamma   42.41934731
_symmetry_Int_Tables_number   1
_chemical_formula_structural   H3HeLi2
_chemical_formula_sum   'H6 He2 Li4'
_cell_volume   303.20361032
_cell_formula_units_Z   2
loop_
 _symmetry_equiv_pos_site_id
 _symmetry_equiv_pos_as_xyz
  1  'x, y, z'
loop_
 _atom_site_type_symbol
 _atom_site_label
 _atom_site_symmetry_multiplicity
 _atom_site_fract_x
 _atom_site_fract_y
 _atom_site_fract_z
 _atom_site_occupancy
  H  H0  1  0.33495444  0.83118680  0.66504556  1
  H  H1  1  0.83118680  0.33495444  0.16881320  1
  H  H2  1  0.66504556  0.16881320  0.33495444  1
  H  H3  1  0.16881320  0.66504556  0.83118680  1
  H  H4  1  0.16660093  0.16660093  0.83339907  1
  H  H5  1  0.83339907  0.83339907  0.16660093  1
  He  He6  1  0.33373913  0.33373913  0.66626087  1
  He  He7  1  0.66626087  0.66626087  0.33373913  1
  Li  Li8  1  0.75908085  0.24091915  0.75908085  1
  Li  Li9  1  0.24091915  0.75908085  0.24091915  1
  Li  Li10  1  0.25000000  0.25000000  0.25000000  1
  Li  Li11  1  0.75000000  0.75000000  0.75000000  1
