# generated using pymatgen
data_HHe2Li6
_symmetry_space_group_name_H-M   'P 1'
_cell_length_a   5.08865392
_cell_length_b   5.78036226
_cell_length_c   14.35699854
_cell_angle_alpha   90.00000000
_cell_angle_beta   90.00000000
_cell_angle_gamma   90.00000000
_symmetry_Int_Tables_number   1
_chemical_formula_structural   HHe2Li6
_chemical_formula_sum   'H4 He8 Li24'
_cell_volume   422.30053185
_cell_formula_units_Z   4
loop_
 _symmetry_equiv_pos_site_id
 _symmetry_equiv_pos_as_xyz
  1  'x, y, z'
loop_
 _atom_site_type_symbol
 _atom_site_label
 _atom_site_symmetry_multiplicity
 _atom_site_fract_x
 _atom_site_fract_y
 _atom_site_fract_z
 _atom_site_occupancy
  H  H0  1  0.25000000  0.83632740  -0.00000000  1
  H  H1  1  0.75000000  0.66367260  0.50000000  1
  H  H2  1  0.75000000  0.16367260  0.00000000  1
  H  H3  1  0.25000000  0.33632740  0.50000000  1
  He  He4  1  0.75580108  0.68010648  0.16015024  1
  He  He5  1  0.25580108  0.81989352  0.33984976  1
  He  He6  1  0.74419892  0.68010648  0.83984976  1
  He  He7  1  0.24419892  0.81989352  0.66015024  1
  He  He8  1  0.24419892  0.31989352  0.83984976  1
  He  He9  1  0.74419892  0.18010648  0.66015024  1
  He  He10  1  0.25580108  0.31989352  0.16015024  1
  He  He11  1  0.75580108  0.18010648  0.33984976  1
  Li  Li12  1  0.42985279  0.60521032  0.09635281  1
  Li  Li13  1  0.92985279  0.89478968  0.40364719  1
  Li  Li14  1  0.07014721  0.60521032  0.90364719  1
  Li  Li15  1  0.57014721  0.89478968  0.59635281  1
  Li  Li16  1  0.57014721  0.39478968  0.90364719  1
  Li  Li17  1  0.07014721  0.10521032  0.59635281  1
  Li  Li18  1  0.92985279  0.39478968  0.09635281  1
  Li  Li19  1  0.42985279  0.10521032  0.40364719  1
  Li  Li20  1  0.90915659  0.88313693  0.07933326  1
  Li  Li21  1  0.40915659  0.61686307  0.42066674  1
  Li  Li22  1  0.59084341  0.88313693  0.92066674  1
  Li  Li23  1  0.09084341  0.61686307  0.57933326  1
  Li  Li24  1  0.09084341  0.11686307  0.92066674  1
  Li  Li25  1  0.59084341  0.38313693  0.57933326  1
  Li  Li26  1  0.40915659  0.11686307  0.07933326  1
  Li  Li27  1  0.90915659  0.38313693  0.42066674  1
  Li  Li28  1  0.58263338  0.87393884  0.25581225  1
  Li  Li29  1  0.08263338  0.62606116  0.24418775  1
  Li  Li30  1  0.91736662  0.87393884  0.74418775  1
  Li  Li31  1  0.41736662  0.62606116  0.75581225  1
  Li  Li32  1  0.41736662  0.12606116  0.74418775  1
  Li  Li33  1  0.91736662  0.37393884  0.75581225  1
  Li  Li34  1  0.08263338  0.12606116  0.25581225  1
  Li  Li35  1  0.58263338  0.37393884  0.24418775  1
