# generated using pymatgen
data_HHe2Li5
_symmetry_space_group_name_H-M   'P 1'
_cell_length_a   7.24049957
_cell_length_b   7.70431657
_cell_length_c   11.52847683
_cell_angle_alpha   90.00000000
_cell_angle_beta   90.00000000
_cell_angle_gamma   90.00000000
_symmetry_Int_Tables_number   1
_chemical_formula_structural   HHe2Li5
_chemical_formula_sum   'H4 He8 Li20'
_cell_volume   643.09418519
_cell_formula_units_Z   4
loop_
 _symmetry_equiv_pos_site_id
 _symmetry_equiv_pos_as_xyz
  1  'x, y, z'
loop_
 _atom_site_type_symbol
 _atom_site_label
 _atom_site_symmetry_multiplicity
 _atom_site_fract_x
 _atom_site_fract_y
 _atom_site_fract_z
 _atom_site_occupancy
  H  H0  1  0.92381021  0.75000000  0.49423272  1
  H  H1  1  0.42381021  0.25000000  0.00576728  1
  H  H2  1  0.07618979  0.25000000  0.50576728  1
  H  H3  1  0.57618979  0.75000000  0.99423272  1
  He  He4  1  0.47911709  0.00295172  0.32084434  1
  He  He5  1  0.97911709  0.99704828  0.17915566  1
  He  He6  1  0.52088291  0.50295172  0.67915566  1
  He  He7  1  0.02088291  0.49704828  0.82084434  1
  He  He8  1  0.52088291  0.99704828  0.67915566  1
  He  He9  1  0.02088291  0.00295172  0.82084434  1
  He  He10  1  0.47911709  0.49704828  0.32084434  1
  He  He11  1  0.97911709  0.50295172  0.17915566  1
  Li  Li12  1  0.16036761  0.53661646  0.59433169  1
  Li  Li13  1  0.66036761  0.46338354  0.90566831  1
  Li  Li14  1  0.83963239  0.03661646  0.40566831  1
  Li  Li15  1  0.33963239  0.96338354  0.09433169  1
  Li  Li16  1  0.83963239  0.46338354  0.40566831  1
  Li  Li17  1  0.33963239  0.53661646  0.09433169  1
  Li  Li18  1  0.16036761  0.96338354  0.59433169  1
  Li  Li19  1  0.66036761  0.03661646  0.90566831  1
  Li  Li20  1  0.16842367  0.75000000  0.31901269  1
  Li  Li21  1  0.66842367  0.25000000  0.18098731  1
  Li  Li22  1  0.83157633  0.25000000  0.68098731  1
  Li  Li23  1  0.33157633  0.75000000  0.81901269  1
  Li  Li24  1  0.55258882  0.75000000  0.49666121  1
  Li  Li25  1  0.05258882  0.25000000  0.00333879  1
  Li  Li26  1  0.44741118  0.25000000  0.50333879  1
  Li  Li27  1  0.94741118  0.75000000  0.99666121  1
  Li  Li28  1  0.80926421  0.75000000  0.70742938  1
  Li  Li29  1  0.30926421  0.25000000  0.79257062  1
  Li  Li30  1  0.19073579  0.25000000  0.29257062  1
  Li  Li31  1  0.69073579  0.75000000  0.20742938  1
