# generated using pymatgen
data_H2He
_symmetry_space_group_name_H-M   'P 1'
_cell_length_a   6.27349276
_cell_length_b   6.27349276
_cell_length_c   7.73864503
_cell_angle_alpha   76.84153295
_cell_angle_beta   76.84153295
_cell_angle_gamma   30.72113792
_symmetry_Int_Tables_number   1
_chemical_formula_structural   H2He
_chemical_formula_sum   'H4 He2'
_cell_volume   151.19350458
_cell_formula_units_Z   2
loop_
 _symmetry_equiv_pos_site_id
 _symmetry_equiv_pos_as_xyz
  1  'x, y, z'
loop_
 _atom_site_type_symbol
 _atom_site_label
 _atom_site_symmetry_multiplicity
 _atom_site_fract_x
 _atom_site_fract_y
 _atom_site_fract_z
 _atom_site_occupancy
  H  H0  1  0.80958821  0.80958821  0.13684387  1
  H  H1  1  0.19041179  0.19041179  0.86315613  1
  H  H2  1  0.86730348  0.86730348  0.52722655  1
  H  H3  1  0.13269652  0.13269652  0.47277345  1
  He  He4  1  0.47445494  0.47445494  0.80938117  1
  He  He5  1  0.52554506  0.52554506  0.19061883  1
