# generated using pymatgen
data_H4He3
_symmetry_space_group_name_H-M   'P 1'
_cell_length_a   5.72914529
_cell_length_b   5.72914529
_cell_length_c   14.31095449
_cell_angle_alpha   90.00000000
_cell_angle_beta   90.00000000
_cell_angle_gamma   138.34497151
_symmetry_Int_Tables_number   1
_chemical_formula_structural   H4He3
_chemical_formula_sum   'H8 He6'
_cell_volume   312.20326077
_cell_formula_units_Z   2
loop_
 _symmetry_equiv_pos_site_id
 _symmetry_equiv_pos_as_xyz
  1  'x, y, z'
loop_
 _atom_site_type_symbol
 _atom_site_label
 _atom_site_symmetry_multiplicity
 _atom_site_fract_x
 _atom_site_fract_y
 _atom_site_fract_z
 _atom_site_occupancy
  H  H0  1  0.62001580  0.37998420  0.10856658  1
  H  H1  1  0.37998420  0.62001580  0.60856658  1
  H  H2  1  0.62001580  0.37998420  0.39143342  1
  H  H3  1  0.37998420  0.62001580  0.89143342  1
  H  H4  1  -0.00000000  0.00000000  0.00000000  1
  H  H5  1  -0.00000000  0.00000000  0.50000000  1
  H  H6  1  0.22630302  0.77369698  0.75000000  1
  H  H7  1  0.77369698  0.22630302  0.25000000  1
  He  He8  1  0.66924588  0.33075412  0.90297562  1
  He  He9  1  0.33075412  0.66924588  0.40297562  1
  He  He10  1  0.66924588  0.33075412  0.59702438  1
  He  He11  1  0.33075412  0.66924588  0.09702438  1
  He  He12  1  0.95420562  0.04579438  0.75000000  1
  He  He13  1  0.04579438  0.95420562  0.25000000  1
