# generated using pymatgen
data_HHeLi3
_symmetry_space_group_name_H-M   'P 1'
_cell_length_a   5.60230358
_cell_length_b   5.60229908
_cell_length_c   5.60235047
_cell_angle_alpha   60.99650215
_cell_angle_beta   60.99599141
_cell_angle_gamma   60.99489323
_symmetry_Int_Tables_number   1
_chemical_formula_structural   HHeLi3
_chemical_formula_sum   'H2 He2 Li6'
_cell_volume   127.12241425
_cell_formula_units_Z   2
loop_
 _symmetry_equiv_pos_site_id
 _symmetry_equiv_pos_as_xyz
  1  'x, y, z'
loop_
 _atom_site_type_symbol
 _atom_site_label
 _atom_site_symmetry_multiplicity
 _atom_site_fract_x
 _atom_site_fract_y
 _atom_site_fract_z
 _atom_site_occupancy
  H  H0  1  -0.00000953  -0.00001598  -0.00000333  1
  H  H1  1  0.49999491  0.50008263  0.50006079  1
  He  He2  1  0.24997594  0.25006199  0.25005297  1
  He  He3  1  0.75001296  0.75006109  0.75006035  1
  Li  Li4  1  0.32122995  0.17864392  0.75013070  1
  Li  Li5  1  0.75013308  0.32128192  0.17871024  1
  Li  Li6  1  0.17864589  0.75009028  0.32124610  1
  Li  Li7  1  0.67883731  0.82153529  0.24998771  1
  Li  Li8  1  0.24982485  0.67895364  0.82150899  1
  Li  Li9  1  0.82145463  0.25000526  0.67894546  1
