# generated using pymatgen
data_HHeLi4
_symmetry_space_group_name_H-M   'P 1'
_cell_length_a   6.02614507
_cell_length_b   6.14768670
_cell_length_c   14.85142992
_cell_angle_alpha   90.00000000
_cell_angle_beta   90.00000000
_cell_angle_gamma   90.00000000
_symmetry_Int_Tables_number   1
_chemical_formula_structural   HHeLi4
_chemical_formula_sum   'H4 He4 Li16'
_cell_volume   550.19872456
_cell_formula_units_Z   4
loop_
 _symmetry_equiv_pos_site_id
 _symmetry_equiv_pos_as_xyz
  1  'x, y, z'
loop_
 _atom_site_type_symbol
 _atom_site_label
 _atom_site_symmetry_multiplicity
 _atom_site_fract_x
 _atom_site_fract_y
 _atom_site_fract_z
 _atom_site_occupancy
  H  H0  1  0.01999193  0.25000000  0.12799052  1
  H  H1  1  0.48000807  0.75000000  0.62799052  1
  H  H2  1  0.98000807  0.75000000  0.87200948  1
  H  H3  1  0.51999193  0.25000000  0.37200948  1
  He  He4  1  0.46528047  0.25000000  0.88133159  1
  He  He5  1  0.03471953  0.75000000  0.38133159  1
  He  He6  1  0.53471953  0.75000000  0.11866841  1
  He  He7  1  0.96528047  0.25000000  0.61866841  1
  Li  Li8  1  0.81918010  0.75000000  0.08098893  1
  Li  Li9  1  0.68081990  0.25000000  0.58098893  1
  Li  Li10  1  0.18081990  0.25000000  0.91901107  1
  Li  Li11  1  0.31918010  0.75000000  0.41901107  1
  Li  Li12  1  0.34811453  0.75000000  0.02444004  1
  Li  Li13  1  0.15188547  0.25000000  0.52444004  1
  Li  Li14  1  0.65188547  0.25000000  0.97555996  1
  Li  Li15  1  0.84811453  0.75000000  0.47555996  1
  Li  Li16  1  0.48554405  0.51049572  0.18536317  1
  Li  Li17  1  0.01445595  0.48950428  0.68536317  1
  Li  Li18  1  0.51445595  0.01049572  0.81463683  1
  Li  Li19  1  0.98554405  0.98950428  0.31463683  1
  Li  Li20  1  0.51445595  0.48950428  0.81463683  1
  Li  Li21  1  0.98554405  0.51049572  0.31463683  1
  Li  Li22  1  0.48554405  0.98950428  0.18536317  1
  Li  Li23  1  0.01445595  0.01049572  0.68536317  1
