# generated using pymatgen
data_HHe2Li5Be
_symmetry_space_group_name_H-M   'P 1'
_cell_length_a   6.82935468
_cell_length_b   6.82935468
_cell_length_c   6.00799361
_cell_angle_alpha   90.00000000
_cell_angle_beta   90.00000000
_cell_angle_gamma   90.00000000
_symmetry_Int_Tables_number   1
_chemical_formula_structural   HHe2Li5Be
_chemical_formula_sum   'H2 He4 Li10 Be2'
_cell_volume   280.21333486
_cell_formula_units_Z   2
loop_
 _symmetry_equiv_pos_site_id
 _symmetry_equiv_pos_as_xyz
  1  'x, y, z'
loop_
 _atom_site_type_symbol
 _atom_site_label
 _atom_site_symmetry_multiplicity
 _atom_site_fract_x
 _atom_site_fract_y
 _atom_site_fract_z
 _atom_site_occupancy
  H  H0  1  0.00000000  0.00000000  0.00000000  1
  H  H1  1  0.50000000  0.50000000  0.00000000  1
  He  He2  1  0.17425336  0.67425336  0.50000000  1
  He  He3  1  0.82574664  0.32574664  0.50000000  1
  He  He4  1  0.32574664  0.17425336  0.50000000  1
  He  He5  1  0.67425336  0.82574664  0.50000000  1
  Li  Li6  1  0.35863610  0.85863610  0.75016669  1
  Li  Li7  1  0.64136390  0.14136390  0.75016669  1
  Li  Li8  1  0.14136390  0.35863610  0.75016669  1
  Li  Li9  1  0.85863610  0.64136390  0.75016669  1
  Li  Li10  1  0.14136390  0.35863610  0.24983331  1
  Li  Li11  1  0.85863610  0.64136390  0.24983331  1
  Li  Li12  1  0.35863610  0.85863610  0.24983331  1
  Li  Li13  1  0.64136390  0.14136390  0.24983331  1
  Li  Li14  1  0.00000000  0.00000000  0.50000000  1
  Li  Li15  1  0.50000000  0.50000000  0.50000000  1
  Be  Be16  1  0.00000000  0.50000000  0.00000000  1
  Be  Be17  1  0.50000000  0.00000000  0.00000000  1
