# generated using pymatgen
data_H2HeLi
_symmetry_space_group_name_H-M   'P 1'
_cell_length_a   8.25552023
_cell_length_b   9.42718272
_cell_length_c   10.45432858
_cell_angle_alpha   90.00000000
_cell_angle_beta   90.00000000
_cell_angle_gamma   90.00000000
_symmetry_Int_Tables_number   1
_chemical_formula_structural   H2HeLi
_chemical_formula_sum   'H24 He12 Li12'
_cell_volume   813.62168761
_cell_formula_units_Z   12
loop_
 _symmetry_equiv_pos_site_id
 _symmetry_equiv_pos_as_xyz
  1  'x, y, z'
loop_
 _atom_site_type_symbol
 _atom_site_label
 _atom_site_symmetry_multiplicity
 _atom_site_fract_x
 _atom_site_fract_y
 _atom_site_fract_z
 _atom_site_occupancy
  H  H0  1  0.65294836  0.34031070  0.68051716  1
  H  H1  1  0.65294836  0.65968930  0.31948284  1
  H  H2  1  0.34705164  0.15968930  0.18051716  1
  H  H3  1  0.34705164  0.84031070  0.81948284  1
  H  H4  1  0.34705164  0.65968930  0.31948284  1
  H  H5  1  0.34705164  0.34031070  0.68051716  1
  H  H6  1  0.65294836  0.84031070  0.81948284  1
  H  H7  1  0.65294836  0.15968930  0.18051716  1
  H  H8  1  0.50000000  0.04080439  0.61497087  1
  H  H9  1  0.50000000  0.95919561  0.38502913  1
  H  H10  1  0.50000000  0.45919561  0.11497087  1
  H  H11  1  0.50000000  0.54080439  0.88502913  1
  H  H12  1  0.00000000  0.03550414  0.61537978  1
  H  H13  1  -0.00000000  0.96449586  0.38462022  1
  H  H14  1  -0.00000000  0.46449586  0.11537978  1
  H  H15  1  0.00000000  0.53550414  0.88462022  1
  H  H16  1  0.50000000  0.13033726  0.90215358  1
  H  H17  1  0.50000000  0.86966274  0.09784642  1
  H  H18  1  0.50000000  0.36966274  0.40215358  1
  H  H19  1  0.50000000  0.63033726  0.59784642  1
  H  H20  1  -0.00000000  0.13341546  0.89714385  1
  H  H21  1  -0.00000000  0.86658454  0.10285615  1
  H  H22  1  -0.00000000  0.36658454  0.39714385  1
  H  H23  1  0.00000000  0.63341546  0.60285615  1
  He  He24  1  0.75094122  0.08830434  0.73574919  1
  He  He25  1  0.75094122  0.91169566  0.26425081  1
  He  He26  1  0.24905878  0.41169566  0.23574919  1
  He  He27  1  0.24905878  0.58830434  0.76425081  1
  He  He28  1  0.24905878  0.91169566  0.26425081  1
  He  He29  1  0.24905878  0.08830434  0.73574919  1
  He  He30  1  0.75094122  0.58830434  0.76425081  1
  He  He31  1  0.75094122  0.41169566  0.23574919  1
  He  He32  1  0.75258873  0.00000000  -0.00000000  1
  He  He33  1  0.24741127  0.50000000  0.50000000  1
  He  He34  1  0.24741127  0.00000000  0.00000000  1
  He  He35  1  0.75258873  0.50000000  0.50000000  1
  Li  Li36  1  0.75478950  0.32144886  0.94898930  1
  Li  Li37  1  0.75478950  0.67855114  0.05101070  1
  Li  Li38  1  0.24521050  0.17855114  0.44898930  1
  Li  Li39  1  0.24521050  0.82144886  0.55101070  1
  Li  Li40  1  0.24521050  0.67855114  0.05101070  1
  Li  Li41  1  0.24521050  0.32144886  0.94898930  1
  Li  Li42  1  0.75478950  0.82144886  0.55101070  1
  Li  Li43  1  0.75478950  0.17855114  0.44898930  1
  Li  Li44  1  -0.00000000  0.33549873  0.67731412  1
  Li  Li45  1  -0.00000000  0.66450127  0.32268588  1
  Li  Li46  1  0.00000000  0.16450127  0.17731412  1
  Li  Li47  1  -0.00000000  0.83549873  0.82268588  1
