# generated using pymatgen
data_HHe4Li2
_symmetry_space_group_name_H-M   'P 1'
_cell_length_a   4.14233860
_cell_length_b   12.07137363
_cell_length_c   14.74920143
_cell_angle_alpha   90.00000000
_cell_angle_beta   90.00000000
_cell_angle_gamma   90.00000000
_symmetry_Int_Tables_number   1
_chemical_formula_structural   HHe4Li2
_chemical_formula_sum   'H4 He16 Li8'
_cell_volume   737.51489414
_cell_formula_units_Z   4
loop_
 _symmetry_equiv_pos_site_id
 _symmetry_equiv_pos_as_xyz
  1  'x, y, z'
loop_
 _atom_site_type_symbol
 _atom_site_label
 _atom_site_symmetry_multiplicity
 _atom_site_fract_x
 _atom_site_fract_y
 _atom_site_fract_z
 _atom_site_occupancy
  H  H0  1  0.25000000  0.75779066  0.33672697  1
  H  H1  1  0.75000000  0.74220934  0.83672697  1
  H  H2  1  0.75000000  0.24220934  0.66327303  1
  H  H3  1  0.25000000  0.25779066  0.16327303  1
  He  He4  1  0.25000000  0.20602539  0.83028114  1
  He  He5  1  0.75000000  0.29397461  0.33028114  1
  He  He6  1  0.75000000  0.79397461  0.16971886  1
  He  He7  1  0.25000000  0.70602539  0.66971886  1
  He  He8  1  0.25000000  0.12497619  0.52246056  1
  He  He9  1  0.75000000  0.37502381  0.02246056  1
  He  He10  1  0.75000000  0.87502381  0.47753944  1
  He  He11  1  0.25000000  0.62497619  0.97753944  1
  He  He12  1  0.25000000  0.52338708  0.21641415  1
  He  He13  1  0.75000000  0.97661292  0.71641415  1
  He  He14  1  0.75000000  0.47661292  0.78358585  1
  He  He15  1  0.25000000  0.02338708  0.28358585  1
  He  He16  1  0.25000000  0.41864548  0.57749362  1
  He  He17  1  0.75000000  0.08135452  0.07749362  1
  He  He18  1  0.75000000  0.58135452  0.42250638  1
  He  He19  1  0.25000000  0.91864548  0.92250638  1
  Li  Li20  1  0.25000000  0.43165430  0.39099333  1
  Li  Li21  1  0.75000000  0.06834570  0.89099333  1
  Li  Li22  1  0.75000000  0.56834570  0.60900667  1
  Li  Li23  1  0.25000000  0.93165430  0.10900667  1
  Li  Li24  1  0.25000000  0.41769760  0.89885203  1
  Li  Li25  1  0.75000000  0.08230240  0.39885203  1
  Li  Li26  1  0.75000000  0.58230240  0.10114797  1
  Li  Li27  1  0.25000000  0.91769760  0.60114797  1
