# generated using pymatgen
data_H10HeLi2Be19
_symmetry_space_group_name_H-M   'P 1'
_cell_length_a   6.49672551
_cell_length_b   6.49672551
_cell_length_c   9.24176038
_cell_angle_alpha   88.58024576
_cell_angle_beta   88.58024576
_cell_angle_gamma   61.54294816
_symmetry_Int_Tables_number   1
_chemical_formula_structural   H10HeLi2Be19
_chemical_formula_sum   'H10 He1 Li2 Be19'
_cell_volume   342.79793580
_cell_formula_units_Z   1
loop_
 _symmetry_equiv_pos_site_id
 _symmetry_equiv_pos_as_xyz
  1  'x, y, z'
loop_
 _atom_site_type_symbol
 _atom_site_label
 _atom_site_symmetry_multiplicity
 _atom_site_fract_x
 _atom_site_fract_y
 _atom_site_fract_z
 _atom_site_occupancy
  H  H0  1  0.75836267  0.37345400  0.12642575  1
  H  H1  1  0.62654600  0.24163733  0.87357425  1
  H  H2  1  0.36395450  0.71499575  0.16178713  1
  H  H3  1  0.28500425  0.63604550  0.83821287  1
  H  H4  1  0.18514853  0.16035378  0.20813326  1
  H  H5  1  0.83964622  0.81485147  0.79186674  1
  H  H6  1  0.44352639  0.32617293  0.27000730  1
  H  H7  1  0.67382707  0.55647361  0.72999270  1
  H  H8  1  0.78809924  0.74702218  0.53039376  1
  H  H9  1  0.25297782  0.21190076  0.46960624  1
  He  He10  1  0.81125183  0.18874817  0.50000000  1
  Li  Li11  1  0.83537801  0.83989876  0.14370360  1
  Li  Li12  1  0.16010124  0.16462199  0.85629640  1
  Be  Be13  1  0.76474347  0.23525653  -0.00000000  1
  Be  Be14  1  0.59048810  0.63121458  0.11394132  1
  Be  Be15  1  0.36878542  0.40951190  0.88605868  1
  Be  Be16  1  0.98888599  0.36286860  0.13653245  1
  Be  Be17  1  0.63713140  0.01111401  0.86346755  1
  Be  Be18  1  0.19862645  0.94657197  0.13420273  1
  Be  Be19  1  0.05342803  0.80137355  0.86579727  1
  Be  Be20  1  0.40566288  0.16283801  0.18094081  1
  Be  Be21  1  0.83716199  0.59433712  0.81905919  1
  Be  Be22  1  0.28190863  0.57480215  0.22278518  1
  Be  Be23  1  0.42519785  0.71809137  0.77721482  1
  Be  Be24  1  0.69098256  0.27437357  0.25302960  1
  Be  Be25  1  0.72562643  0.30901744  0.74697040  1
  Be  Be26  1  0.80667794  0.80517886  0.39167208  1
  Be  Be27  1  0.19482114  0.19332206  0.60832792  1
  Be  Be28  1  0.70260021  0.59504990  0.57450961  1
  Be  Be29  1  0.40495010  0.29739979  0.42549039  1
  Be  Be30  1  0.85250262  0.85670499  0.63648221  1
  Be  Be31  1  0.14329501  0.14749738  0.36351779  1
