# generated using pymatgen
data_H3HeLi
_symmetry_space_group_name_H-M   'P 1'
_cell_length_a   9.19943047
_cell_length_b   9.19943047
_cell_length_c   9.19943047
_cell_angle_alpha   90.00000000
_cell_angle_beta   90.00000000
_cell_angle_gamma   90.00000000
_symmetry_Int_Tables_number   1
_chemical_formula_structural   H3HeLi
_chemical_formula_sum   'H24 He8 Li8'
_cell_volume   778.54339416
_cell_formula_units_Z   8
loop_
 _symmetry_equiv_pos_site_id
 _symmetry_equiv_pos_as_xyz
  1  'x, y, z'
loop_
 _atom_site_type_symbol
 _atom_site_label
 _atom_site_symmetry_multiplicity
 _atom_site_fract_x
 _atom_site_fract_y
 _atom_site_fract_z
 _atom_site_occupancy
  H  H0  1  0.23285463  0.13971928  0.40778262  1
  H  H1  1  0.26714537  0.86028072  0.90778262  1
  H  H2  1  0.76714537  0.63971928  0.09221738  1
  H  H3  1  0.73285463  0.36028072  0.59221738  1
  H  H4  1  0.40778262  0.23285463  0.13971928  1
  H  H5  1  0.90778262  0.26714537  0.86028072  1
  H  H6  1  0.09221738  0.76714537  0.63971928  1
  H  H7  1  0.59221738  0.73285463  0.36028072  1
  H  H8  1  0.13971928  0.40778262  0.23285463  1
  H  H9  1  0.86028072  0.90778262  0.26714537  1
  H  H10  1  0.63971928  0.09221738  0.76714537  1
  H  H11  1  0.36028072  0.59221738  0.73285463  1
  H  H12  1  0.76714537  0.86028072  0.59221738  1
  H  H13  1  0.73285463  0.13971928  0.09221738  1
  H  H14  1  0.23285463  0.36028072  0.90778262  1
  H  H15  1  0.26714537  0.63971928  0.40778262  1
  H  H16  1  0.59221738  0.76714537  0.86028072  1
  H  H17  1  0.09221738  0.73285463  0.13971928  1
  H  H18  1  0.90778262  0.23285463  0.36028072  1
  H  H19  1  0.40778262  0.26714537  0.63971928  1
  H  H20  1  0.86028072  0.59221738  0.76714537  1
  H  H21  1  0.13971928  0.09221738  0.73285463  1
  H  H22  1  0.36028072  0.90778262  0.23285463  1
  H  H23  1  0.63971928  0.40778262  0.26714537  1
  He  He24  1  0.38832444  0.38832444  0.38832444  1
  He  He25  1  0.11167556  0.61167556  0.88832444  1
  He  He26  1  0.61167556  0.88832444  0.11167556  1
  He  He27  1  0.88832444  0.11167556  0.61167556  1
  He  He28  1  0.61167556  0.61167556  0.61167556  1
  He  He29  1  0.88832444  0.38832444  0.11167556  1
  He  He30  1  0.38832444  0.11167556  0.88832444  1
  He  He31  1  0.11167556  0.88832444  0.38832444  1
  Li  Li32  1  0.10020123  0.10020123  0.10020123  1
  Li  Li33  1  0.39979877  0.89979877  0.60020123  1
  Li  Li34  1  0.89979877  0.60020123  0.39979877  1
  Li  Li35  1  0.60020123  0.39979877  0.89979877  1
  Li  Li36  1  0.89979877  0.89979877  0.89979877  1
  Li  Li37  1  0.60020123  0.10020123  0.39979877  1
  Li  Li38  1  0.10020123  0.39979877  0.60020123  1
  Li  Li39  1  0.39979877  0.60020123  0.10020123  1
