# generated using pymatgen
data_HHeLi2
_symmetry_space_group_name_H-M   'P 1'
_cell_length_a   8.21923580
_cell_length_b   8.21923580
_cell_length_c   3.94839414
_cell_angle_alpha   90.00000000
_cell_angle_beta   90.00000000
_cell_angle_gamma   151.90344153
_symmetry_Int_Tables_number   1
_chemical_formula_structural   HHeLi2
_chemical_formula_sum   'H2 He2 Li4'
_cell_volume   125.62219655
_cell_formula_units_Z   2
loop_
 _symmetry_equiv_pos_site_id
 _symmetry_equiv_pos_as_xyz
  1  'x, y, z'
loop_
 _atom_site_type_symbol
 _atom_site_label
 _atom_site_symmetry_multiplicity
 _atom_site_fract_x
 _atom_site_fract_y
 _atom_site_fract_z
 _atom_site_occupancy
  H  H0  1  0.68109135  0.31890865  0.75000000  1
  H  H1  1  0.31890865  0.68109135  0.25000000  1
  He  He2  1  0.89286035  0.10713965  0.75000000  1
  He  He3  1  0.10713965  0.89286035  0.25000000  1
  Li  Li4  1  0.54373621  0.45626379  0.75000000  1
  Li  Li5  1  0.45626379  0.54373621  0.25000000  1
  Li  Li6  1  0.24994050  0.75005950  0.75000000  1
  Li  Li7  1  0.75005950  0.24994050  0.25000000  1
