# generated using pymatgen
data_H3He3Li2
_symmetry_space_group_name_H-M   'P 1'
_cell_length_a   5.97641642
_cell_length_b   5.97641642
_cell_length_c   14.80045914
_cell_angle_alpha   90.00000000
_cell_angle_beta   90.00000000
_cell_angle_gamma   120.00090067
_symmetry_Int_Tables_number   1
_chemical_formula_structural   H3He3Li2
_chemical_formula_sum   'H6 He6 Li4'
_cell_volume   457.80821169
_cell_formula_units_Z   2
loop_
 _symmetry_equiv_pos_site_id
 _symmetry_equiv_pos_as_xyz
  1  'x, y, z'
loop_
 _atom_site_type_symbol
 _atom_site_label
 _atom_site_symmetry_multiplicity
 _atom_site_fract_x
 _atom_site_fract_y
 _atom_site_fract_z
 _atom_site_occupancy
  H  H0  1  0.15878507  0.31756276  0.25000000  1
  H  H1  1  0.68243724  0.84121493  0.25000000  1
  H  H2  1  0.15877803  0.84122197  0.25000000  1
  H  H3  1  0.84121493  0.68243724  0.75000000  1
  H  H4  1  0.31756276  0.15878507  0.75000000  1
  H  H5  1  0.84122197  0.15877803  0.75000000  1
  He  He6  1  0.33333170  0.66666830  0.62413046  1
  He  He7  1  0.66666830  0.33333170  0.12413046  1
  He  He8  1  0.66666830  0.33333170  0.37586954  1
  He  He9  1  0.33333170  0.66666830  0.87586954  1
  He  He10  1  0.00000000  0.00000000  0.00000000  1
  He  He11  1  -0.00000000  -0.00000000  0.50000000  1
  Li  Li12  1  0.33333261  0.66666739  0.11228453  1
  Li  Li13  1  0.66666739  0.33333261  0.61228453  1
  Li  Li14  1  0.66666739  0.33333261  0.88771547  1
  Li  Li15  1  0.33333261  0.66666739  0.38771547  1
