# generated using pymatgen
data_H4He3
_symmetry_space_group_name_H-M   'P 1'
_cell_length_a   8.59816692
_cell_length_b   8.59816692
_cell_length_c   8.59816692
_cell_angle_alpha   22.49729600
_cell_angle_beta   22.49729600
_cell_angle_gamma   22.49729600
_symmetry_Int_Tables_number   1
_chemical_formula_structural   H4He3
_chemical_formula_sum   'H4 He3'
_cell_volume   81.63387129
_cell_formula_units_Z   1
loop_
 _symmetry_equiv_pos_site_id
 _symmetry_equiv_pos_as_xyz
  1  'x, y, z'
loop_
 _atom_site_type_symbol
 _atom_site_label
 _atom_site_symmetry_multiplicity
 _atom_site_fract_x
 _atom_site_fract_y
 _atom_site_fract_z
 _atom_site_occupancy
  H  H0  1  0.29349781  0.29349781  0.29349781  1
  H  H1  1  0.70650219  0.70650219  0.70650219  1
  H  H2  1  0.12983837  0.12983837  0.12983837  1
  H  H3  1  0.87016163  0.87016163  0.87016163  1
  He  He4  1  -0.00000000  -0.00000000  -0.00000000  1
  He  He5  1  0.21680567  0.21680567  0.21680567  1
  He  He6  1  0.78319433  0.78319433  0.78319433  1
