# generated using pymatgen
data_H7He3Li
_symmetry_space_group_name_H-M   'P 1'
_cell_length_a   8.02028917
_cell_length_b   8.02028917
_cell_length_c   9.29592273
_cell_angle_alpha   90.00000000
_cell_angle_beta   90.00000000
_cell_angle_gamma   154.57544679
_symmetry_Int_Tables_number   1
_chemical_formula_structural   H7He3Li
_chemical_formula_sum   'H14 He6 Li2'
_cell_volume   256.71775714
_cell_formula_units_Z   2
loop_
 _symmetry_equiv_pos_site_id
 _symmetry_equiv_pos_as_xyz
  1  'x, y, z'
loop_
 _atom_site_type_symbol
 _atom_site_label
 _atom_site_symmetry_multiplicity
 _atom_site_fract_x
 _atom_site_fract_y
 _atom_site_fract_z
 _atom_site_occupancy
  H  H0  1  0.27285368  0.72714632  0.96614976  1
  H  H1  1  0.72714632  0.27285368  0.46614976  1
  H  H2  1  0.27285368  0.72714632  0.53385024  1
  H  H3  1  0.72714632  0.27285368  0.03385024  1
  H  H4  1  0.36761378  0.63238622  0.65029146  1
  H  H5  1  0.63238622  0.36761378  0.15029146  1
  H  H6  1  0.36761378  0.63238622  0.84970854  1
  H  H7  1  0.63238622  0.36761378  0.34970854  1
  H  H8  1  0.47984778  0.52015222  0.59469201  1
  H  H9  1  0.52015222  0.47984778  0.09469201  1
  H  H10  1  0.47984778  0.52015222  0.90530799  1
  H  H11  1  0.52015222  0.47984778  0.40530799  1
  H  H12  1  0.54431248  0.45568752  0.75000000  1
  H  H13  1  0.45568752  0.54431248  0.25000000  1
  He  He14  1  0.10515833  0.89484167  0.94074400  1
  He  He15  1  0.89484167  0.10515833  0.44074400  1
  He  He16  1  0.10515833  0.89484167  0.55925600  1
  He  He17  1  0.89484167  0.10515833  0.05925600  1
  He  He18  1  0.75780318  0.24219682  0.75000000  1
  He  He19  1  0.24219682  0.75780318  0.25000000  1
  Li  Li20  1  0.94708559  0.05291441  0.75000000  1
  Li  Li21  1  0.05291441  0.94708559  0.25000000  1
