# generated using pymatgen
data_H2He
_symmetry_space_group_name_H-M   'P 1'
_cell_length_a   5.01691853
_cell_length_b   5.01691853
_cell_length_c   6.84010741
_cell_angle_alpha   90.00000000
_cell_angle_beta   90.00000000
_cell_angle_gamma   120.00000000
_symmetry_Int_Tables_number   1
_chemical_formula_structural   H2He
_chemical_formula_sum   'H6 He3'
_cell_volume   149.09656938
_cell_formula_units_Z   3
loop_
 _symmetry_equiv_pos_site_id
 _symmetry_equiv_pos_as_xyz
  1  'x, y, z'
loop_
 _atom_site_type_symbol
 _atom_site_label
 _atom_site_symmetry_multiplicity
 _atom_site_fract_x
 _atom_site_fract_y
 _atom_site_fract_z
 _atom_site_occupancy
  H  H0  1  0.16379615  0.32759229  0.50000000  1
  H  H1  1  0.67240771  0.83620385  0.16666667  1
  H  H2  1  0.16379615  0.83620385  0.83333333  1
  H  H3  1  0.83620385  0.67240771  0.50000000  1
  H  H4  1  0.32759229  0.16379615  0.16666667  1
  H  H5  1  0.83620385  0.16379615  0.83333333  1
  He  He6  1  0.50000000  -0.00000000  0.50000000  1
  He  He7  1  0.00000000  0.50000000  0.16666667  1
  He  He8  1  0.50000000  0.50000000  0.83333333  1
