# generated using pymatgen
data_HHe4(Li7Be3)2
_symmetry_space_group_name_H-M   'P 1'
_cell_length_a   19.57122021
_cell_length_b   4.05419245
_cell_length_c   16.07330356
_cell_angle_alpha   87.74298599
_cell_angle_beta   90.00000000
_cell_angle_gamma   90.00000000
_symmetry_Int_Tables_number   1
_chemical_formula_structural   HHe4(Li7Be3)2
_chemical_formula_sum   'H2 He8 Li28 Be12'
_cell_volume   1274.35481617
_cell_formula_units_Z   2
loop_
 _symmetry_equiv_pos_site_id
 _symmetry_equiv_pos_as_xyz
  1  'x, y, z'
loop_
 _atom_site_type_symbol
 _atom_site_label
 _atom_site_symmetry_multiplicity
 _atom_site_fract_x
 _atom_site_fract_y
 _atom_site_fract_z
 _atom_site_occupancy
  H  H0  1  0.00000000  0.50000000  -0.00000000  1
  H  H1  1  0.50000000  0.50000000  0.50000000  1
  He  He2  1  0.24228173  0.56770713  0.57396380  1
  He  He3  1  0.74228173  0.43229287  0.92603620  1
  He  He4  1  0.75771827  0.43229287  0.42603620  1
  He  He5  1  0.25771827  0.56770713  0.07396380  1
  He  He6  1  0.13703618  0.53728020  0.81449278  1
  He  He7  1  0.63703618  0.46271980  0.68550722  1
  He  He8  1  0.86296382  0.46271980  0.18550722  1
  He  He9  1  0.36296382  0.53728020  0.31449278  1
  Li  Li10  1  0.10457243  0.56602818  0.50118551  1
  Li  Li11  1  0.60457243  0.43397182  0.99881449  1
  Li  Li12  1  0.89542757  0.43397182  0.49881449  1
  Li  Li13  1  0.39542757  0.56602818  0.00118551  1
  Li  Li14  1  0.16270304  0.05929027  0.68374852  1
  Li  Li15  1  0.66270304  0.94070973  0.81625148  1
  Li  Li16  1  0.83729696  0.94070973  0.31625148  1
  Li  Li17  1  0.33729696  0.05929027  0.18374852  1
  Li  Li18  1  0.04586763  0.02547843  0.90492487  1
  Li  Li19  1  0.54586763  0.97452157  0.59507513  1
  Li  Li20  1  0.95413237  0.97452157  0.09507513  1
  Li  Li21  1  0.45413237  0.02547843  0.40492487  1
  Li  Li22  1  0.27011432  0.08731201  0.45067825  1
  Li  Li23  1  0.77011432  0.91268799  0.04932175  1
  Li  Li24  1  0.72988568  0.91268799  0.54932175  1
  Li  Li25  1  0.22988568  0.08731201  0.95067825  1
  Li  Li26  1  0.00877490  0.53426271  0.71461223  1
  Li  Li27  1  0.50877490  0.46573729  0.78538777  1
  Li  Li28  1  0.99122510  0.46573729  0.28538777  1
  Li  Li29  1  0.49122510  0.53426271  0.21461223  1
  Li  Li30  1  0.29897554  0.60979257  0.78192033  1
  Li  Li31  1  0.79897554  0.39020743  0.71807967  1
  Li  Li32  1  0.70102446  0.39020743  0.21807967  1
  Li  Li33  1  0.20102446  0.60979257  0.28192033  1
  Li  Li34  1  0.39747929  0.48241526  0.58615685  1
  Li  Li35  1  0.89747929  0.51758474  0.91384315  1
  Li  Li36  1  0.60252071  0.51758474  0.41384315  1
  Li  Li37  1  0.10252071  0.48241526  0.08615685  1
  Be  Be38  1  0.05489208  0.12875946  0.60416534  1
  Be  Be39  1  0.55489208  0.87124054  0.89583466  1
  Be  Be40  1  0.94510792  0.87124054  0.39583466  1
  Be  Be41  1  0.44510792  0.12875946  0.10416534  1
  Be  Be42  1  0.94217444  0.09463010  0.81684578  1
  Be  Be43  1  0.44217444  0.90536990  0.68315422  1
  Be  Be44  1  0.05782556  0.90536990  0.18315422  1
  Be  Be45  1  0.55782556  0.09463010  0.31684578  1
  Be  Be46  1  0.16134145  0.12838877  0.37374744  1
  Be  Be47  1  0.66134145  0.87161123  0.12625256  1
  Be  Be48  1  0.83865855  0.87161123  0.62625256  1
  Be  Be49  1  0.33865855  0.12838877  0.87374744  1
