# generated using pymatgen
data_H3He2Li3
_symmetry_space_group_name_H-M   'P 1'
_cell_length_a   8.43663623
_cell_length_b   8.43663623
_cell_length_c   8.43663623
_cell_angle_alpha   90.00000000
_cell_angle_beta   90.00000000
_cell_angle_gamma   90.00000000
_symmetry_Int_Tables_number   1
_chemical_formula_structural   H3He2Li3
_chemical_formula_sum   'H12 He8 Li12'
_cell_volume   600.49303026
_cell_formula_units_Z   4
loop_
 _symmetry_equiv_pos_site_id
 _symmetry_equiv_pos_as_xyz
  1  'x, y, z'
loop_
 _atom_site_type_symbol
 _atom_site_label
 _atom_site_symmetry_multiplicity
 _atom_site_fract_x
 _atom_site_fract_y
 _atom_site_fract_z
 _atom_site_occupancy
  H  H0  1  0.00000000  0.14353107  0.32182897  1
  H  H1  1  0.00000000  0.85646893  0.32182897  1
  H  H2  1  -0.00000000  0.14353107  0.67817103  1
  H  H3  1  -0.00000000  0.85646893  0.67817103  1
  H  H4  1  0.32182897  -0.00000000  0.14353107  1
  H  H5  1  0.32182897  -0.00000000  0.85646893  1
  H  H6  1  0.67817103  0.00000000  0.14353107  1
  H  H7  1  0.67817103  0.00000000  0.85646893  1
  H  H8  1  0.14353107  0.32182897  -0.00000000  1
  H  H9  1  0.85646893  0.32182897  -0.00000000  1
  H  H10  1  0.14353107  0.67817103  0.00000000  1
  H  H11  1  0.85646893  0.67817103  0.00000000  1
  He  He12  1  0.26431617  0.26431617  0.26431617  1
  He  He13  1  0.73568383  0.73568383  0.26431617  1
  He  He14  1  0.73568383  0.26431617  0.73568383  1
  He  He15  1  0.26431617  0.73568383  0.73568383  1
  He  He16  1  0.73568383  0.73568383  0.73568383  1
  He  He17  1  0.26431617  0.26431617  0.73568383  1
  He  He18  1  0.26431617  0.73568383  0.26431617  1
  He  He19  1  0.73568383  0.26431617  0.26431617  1
  Li  Li20  1  0.50000000  0.62622072  0.82812943  1
  Li  Li21  1  0.50000000  0.37377928  0.82812943  1
  Li  Li22  1  0.50000000  0.62622072  0.17187057  1
  Li  Li23  1  0.50000000  0.37377928  0.17187057  1
  Li  Li24  1  0.82812943  0.50000000  0.62622072  1
  Li  Li25  1  0.82812943  0.50000000  0.37377928  1
  Li  Li26  1  0.17187057  0.50000000  0.62622072  1
  Li  Li27  1  0.17187057  0.50000000  0.37377928  1
  Li  Li28  1  0.62622072  0.82812943  0.50000000  1
  Li  Li29  1  0.37377928  0.82812943  0.50000000  1
  Li  Li30  1  0.62622072  0.17187057  0.50000000  1
  Li  Li31  1  0.37377928  0.17187057  0.50000000  1
