# generated using pymatgen
data_HHe
_symmetry_space_group_name_H-M   'P 1'
_cell_length_a   6.45792694
_cell_length_b   6.45792694
_cell_length_c   5.29753179
_cell_angle_alpha   77.86679305
_cell_angle_beta   77.86679305
_cell_angle_gamma   34.94668229
_symmetry_Int_Tables_number   1
_chemical_formula_structural   HHe
_chemical_formula_sum   'H4 He4'
_cell_volume   123.44261752
_cell_formula_units_Z   4
loop_
 _symmetry_equiv_pos_site_id
 _symmetry_equiv_pos_as_xyz
  1  'x, y, z'
loop_
 _atom_site_type_symbol
 _atom_site_label
 _atom_site_symmetry_multiplicity
 _atom_site_fract_x
 _atom_site_fract_y
 _atom_site_fract_z
 _atom_site_occupancy
  H  H0  1  0.00000000  0.00000000  -0.00000000  1
  H  H1  1  0.00000000  0.00000000  0.50000000  1
  H  H2  1  0.21170617  0.21170617  0.64734381  1
  H  H3  1  0.78829383  0.78829383  0.35265619  1
  He  He4  1  0.19001956  0.19001956  0.14871486  1
  He  He5  1  0.80998044  0.80998044  0.85128514  1
  He  He6  1  0.43088902  0.43088902  0.28804432  1
  He  He7  1  0.56911098  0.56911098  0.71195568  1
