# generated using pymatgen
data_H5He3
_symmetry_space_group_name_H-M   'P 1'
_cell_length_a   7.44635377
_cell_length_b   7.44701915
_cell_length_c   5.35002054
_cell_angle_alpha   90.00000000
_cell_angle_beta   90.00000000
_cell_angle_gamma   119.99778981
_symmetry_Int_Tables_number   1
_chemical_formula_structural   H5He3
_chemical_formula_sum   'H10 He6'
_cell_volume   256.93418413
_cell_formula_units_Z   2
loop_
 _symmetry_equiv_pos_site_id
 _symmetry_equiv_pos_as_xyz
  1  'x, y, z'
loop_
 _atom_site_type_symbol
 _atom_site_label
 _atom_site_symmetry_multiplicity
 _atom_site_fract_x
 _atom_site_fract_y
 _atom_site_fract_z
 _atom_site_occupancy
  H  H0  1  0.66667148  0.33334454  0.00000779  1
  H  H1  1  0.33332852  0.66665546  0.50000779  1
  H  H2  1  0.33332852  0.66665546  -0.00000779  1
  H  H3  1  0.66667148  0.33334454  0.49999221  1
  H  H4  1  0.23635608  -0.00000585  0.75000000  1
  H  H5  1  0.99993981  0.23647679  0.75000000  1
  H  H6  1  0.76343230  0.76350504  0.75000000  1
  H  H7  1  0.76364392  0.00000585  0.25000000  1
  H  H8  1  0.00006019  0.76352321  0.25000000  1
  H  H9  1  0.23656770  0.23649496  0.25000000  1
  He  He10  1  0.60082162  0.00000401  0.75000000  1
  He  He11  1  0.99998364  0.60090068  0.75000000  1
  He  He12  1  0.39908906  0.39910101  0.75000000  1
  He  He13  1  0.39917838  -0.00000401  0.25000000  1
  He  He14  1  0.00001636  0.39909932  0.25000000  1
  He  He15  1  0.60091094  0.60089899  0.25000000  1
