# generated using pymatgen
data_H2He13Li5
_symmetry_space_group_name_H-M   'P 1'
_cell_length_a   8.32376209
_cell_length_b   8.32376209
_cell_length_c   8.32376209
_cell_angle_alpha   122.95316896
_cell_angle_beta   122.95316896
_cell_angle_gamma   84.95680628
_symmetry_Int_Tables_number   1
_chemical_formula_structural   H2He13Li5
_chemical_formula_sum   'H2 He13 Li5'
_cell_volume   387.95295502
_cell_formula_units_Z   1
loop_
 _symmetry_equiv_pos_site_id
 _symmetry_equiv_pos_as_xyz
  1  'x, y, z'
loop_
 _atom_site_type_symbol
 _atom_site_label
 _atom_site_symmetry_multiplicity
 _atom_site_fract_x
 _atom_site_fract_y
 _atom_site_fract_z
 _atom_site_occupancy
  H  H0  1  0.75226446  0.25226446  0.50000000  1
  H  H1  1  0.25226446  0.75226446  0.50000000  1
  He  He2  1  0.43406946  0.43406946  0.66774455  1
  He  He3  1  0.76632491  0.76632491  0.33225545  1
  He  He4  1  0.43406946  0.76632491  0.00000000  1
  He  He5  1  0.76632491  0.43406946  -0.00000000  1
  He  He6  1  0.15829200  0.15829200  0.55838942  1
  He  He7  1  0.59990257  0.59990257  0.44161058  1
  He  He8  1  0.15829200  0.59990257  0.00000000  1
  He  He9  1  0.59990257  0.15829200  0.00000000  1
  He  He10  1  0.02294219  0.28745154  0.26450934  1
  He  He11  1  0.02294219  0.75843285  0.73549066  1
  He  He12  1  0.28745154  0.02294219  0.26450934  1
  He  He13  1  0.75843285  0.02294219  0.73549066  1
  He  He14  1  0.77097282  0.77097282  -0.00000000  1
  Li  Li15  1  0.22358702  0.22358702  0.44356457  1
  Li  Li16  1  0.78002245  0.78002245  0.55643543  1
  Li  Li17  1  0.22358702  0.78002245  -0.00000000  1
  Li  Li18  1  0.78002245  0.22358702  -0.00000000  1
  Li  Li19  1  0.63851266  0.63851266  -0.00000000  1
