# generated using pymatgen
data_HHeLi
_symmetry_space_group_name_H-M   'P 1'
_cell_length_a   4.01311431
_cell_length_b   6.59120851
_cell_length_c   7.45265958
_cell_angle_alpha   90.00000000
_cell_angle_beta   90.00000000
_cell_angle_gamma   90.00000000
_symmetry_Int_Tables_number   1
_chemical_formula_structural   HHeLi
_chemical_formula_sum   'H4 He4 Li4'
_cell_volume   197.13233449
_cell_formula_units_Z   4
loop_
 _symmetry_equiv_pos_site_id
 _symmetry_equiv_pos_as_xyz
  1  'x, y, z'
loop_
 _atom_site_type_symbol
 _atom_site_label
 _atom_site_symmetry_multiplicity
 _atom_site_fract_x
 _atom_site_fract_y
 _atom_site_fract_z
 _atom_site_occupancy
  H  H0  1  0.25000000  0.16806234  0.42519679  1
  H  H1  1  0.75000000  0.33193766  0.92519679  1
  H  H2  1  0.75000000  0.83193766  0.57480321  1
  H  H3  1  0.25000000  0.66806234  0.07480321  1
  He  He4  1  0.25000000  0.77470054  0.39699324  1
  He  He5  1  0.75000000  0.72529946  0.89699324  1
  He  He6  1  0.75000000  0.22529946  0.60300676  1
  He  He7  1  0.25000000  0.27470054  0.10300676  1
  Li  Li8  1  0.25000000  0.01211752  0.80496763  1
  Li  Li9  1  0.75000000  0.48788248  0.30496763  1
  Li  Li10  1  0.75000000  0.98788248  0.19503237  1
  Li  Li11  1  0.25000000  0.51211752  0.69503237  1
