# generated using pymatgen
data_H23He6
_symmetry_space_group_name_H-M   'P 1'
_cell_length_a   9.70346075
_cell_length_b   9.70346075
_cell_length_c   9.70346075
_cell_angle_alpha   60.00000000
_cell_angle_beta   60.00000000
_cell_angle_gamma   60.00000000
_symmetry_Int_Tables_number   1
_chemical_formula_structural   H23He6
_chemical_formula_sum   'H23 He6'
_cell_volume   646.04826293
_cell_formula_units_Z   1
loop_
 _symmetry_equiv_pos_site_id
 _symmetry_equiv_pos_as_xyz
  1  'x, y, z'
loop_
 _atom_site_type_symbol
 _atom_site_label
 _atom_site_symmetry_multiplicity
 _atom_site_fract_x
 _atom_site_fract_y
 _atom_site_fract_z
 _atom_site_occupancy
  H  H0  1  -0.00000000  -0.00000000  0.00000000  1
  H  H1  1  0.50000000  0.00000000  0.00000000  1
  H  H2  1  -0.00000000  0.50000000  0.50000000  1
  H  H3  1  0.50000000  0.50000000  -0.00000000  1
  H  H4  1  -0.00000000  0.00000000  0.50000000  1
  H  H5  1  0.50000000  -0.00000000  0.50000000  1
  H  H6  1  -0.00000000  0.50000000  0.00000000  1
  H  H7  1  0.35329729  0.88223424  0.88223424  1
  H  H8  1  0.88223424  0.88223424  0.35329729  1
  H  H9  1  0.88223424  0.35329729  0.88223424  1
  H  H10  1  0.88223424  0.88223424  0.88223424  1
  H  H11  1  0.11776576  0.11776576  0.64670271  1
  H  H12  1  0.64670271  0.11776576  0.11776576  1
  H  H13  1  0.11776576  0.64670271  0.11776576  1
  H  H14  1  0.11776576  0.11776576  0.11776576  1
  H  H15  1  0.99030771  0.66989743  0.66989743  1
  H  H16  1  0.66989743  0.66989743  0.99030771  1
  H  H17  1  0.66989743  0.99030771  0.66989743  1
  H  H18  1  0.66989743  0.66989743  0.66989743  1
  H  H19  1  0.33010257  0.33010257  0.00969229  1
  H  H20  1  0.00969229  0.33010257  0.33010257  1
  H  H21  1  0.33010257  0.00969229  0.33010257  1
  H  H22  1  0.33010257  0.33010257  0.33010257  1
  He  He23  1  0.29925220  0.70074780  0.70074780  1
  He  He24  1  0.70074780  0.29925220  0.29925220  1
  He  He25  1  0.29925220  0.29925220  0.70074780  1
  He  He26  1  0.70074780  0.70074780  0.29925220  1
  He  He27  1  0.29925220  0.70074780  0.29925220  1
  He  He28  1  0.70074780  0.29925220  0.70074780  1
