# generated using pymatgen
data_HHe2
_symmetry_space_group_name_H-M   'P 1'
_cell_length_a   5.27061208
_cell_length_b   5.27061208
_cell_length_c   6.59907824
_cell_angle_alpha   90.00000000
_cell_angle_beta   90.00000000
_cell_angle_gamma   119.99530625
_symmetry_Int_Tables_number   1
_chemical_formula_structural   HHe2
_chemical_formula_sum   'H2 He4'
_cell_volume   158.76565313
_cell_formula_units_Z   2
loop_
 _symmetry_equiv_pos_site_id
 _symmetry_equiv_pos_as_xyz
  1  'x, y, z'
loop_
 _atom_site_type_symbol
 _atom_site_label
 _atom_site_symmetry_multiplicity
 _atom_site_fract_x
 _atom_site_fract_y
 _atom_site_fract_z
 _atom_site_occupancy
  H  H0  1  0.33333159  0.66666841  0.25000000  1
  H  H1  1  0.66666841  0.33333159  0.75000000  1
  He  He2  1  -0.00000000  -0.00000000  0.00000000  1
  He  He3  1  0.00000000  0.00000000  0.50000000  1
  He  He4  1  0.33333453  0.66666547  0.75000000  1
  He  He5  1  0.66666547  0.33333453  0.25000000  1
