# generated using pymatgen
data_H8HeLi2
_symmetry_space_group_name_H-M   'P 1'
_cell_length_a   3.97952777
_cell_length_b   12.45963458
_cell_length_c   14.35204624
_cell_angle_alpha   90.00000000
_cell_angle_beta   90.00000000
_cell_angle_gamma   90.00000000
_symmetry_Int_Tables_number   1
_chemical_formula_structural   H8HeLi2
_chemical_formula_sum   'H32 He4 Li8'
_cell_volume   711.62413668
_cell_formula_units_Z   4
loop_
 _symmetry_equiv_pos_site_id
 _symmetry_equiv_pos_as_xyz
  1  'x, y, z'
loop_
 _atom_site_type_symbol
 _atom_site_label
 _atom_site_symmetry_multiplicity
 _atom_site_fract_x
 _atom_site_fract_y
 _atom_site_fract_z
 _atom_site_occupancy
  H  H0  1  0.00000000  0.00000000  0.00000000  1
  H  H1  1  0.00000000  0.50000000  0.50000000  1
  H  H2  1  0.50000000  -0.00000000  0.50000000  1
  H  H3  1  0.50000000  0.50000000  0.00000000  1
  H  H4  1  0.50000000  0.23447261  0.82847567  1
  H  H5  1  0.50000000  0.76552739  0.17152433  1
  H  H6  1  0.50000000  0.26552739  0.32847567  1
  H  H7  1  0.50000000  0.73447261  0.67152433  1
  H  H8  1  0.50000000  0.45152000  0.82214898  1
  H  H9  1  0.50000000  0.54848000  0.17785102  1
  H  H10  1  0.50000000  0.04848000  0.32214898  1
  H  H11  1  0.50000000  0.95152000  0.67785102  1
  H  H12  1  0.50000000  0.15814817  0.61931473  1
  H  H13  1  0.50000000  0.84185183  0.38068527  1
  H  H14  1  0.50000000  0.34185183  0.11931473  1
  H  H15  1  0.50000000  0.65814817  0.88068527  1
  H  H16  1  0.00000000  0.34034304  0.95600645  1
  H  H17  1  -0.00000000  0.65965696  0.04399355  1
  H  H18  1  -0.00000000  0.15965696  0.45600645  1
  H  H19  1  0.00000000  0.84034304  0.54399355  1
  H  H20  1  0.00000000  0.09478218  0.74696532  1
  H  H21  1  0.00000000  0.90521782  0.25303468  1
  H  H22  1  -0.00000000  0.40521782  0.24696532  1
  H  H23  1  0.00000000  0.59478218  0.75303468  1
  H  H24  1  0.50000000  0.33166436  0.50738043  1
  H  H25  1  0.50000000  0.66833564  0.49261957  1
  H  H26  1  0.50000000  0.16833564  0.00738043  1
  H  H27  1  0.50000000  0.83166436  0.99261957  1
  H  H28  1  0.50000000  0.02530293  0.86783088  1
  H  H29  1  0.50000000  0.97469707  0.13216912  1
  H  H30  1  0.50000000  0.47469707  0.36783088  1
  H  H31  1  0.50000000  0.52530293  0.63216912  1
  He  He32  1  0.00000000  0.34004162  0.68147132  1
  He  He33  1  -0.00000000  0.65995838  0.31852868  1
  He  He34  1  -0.00000000  0.15995838  0.18147132  1
  He  He35  1  -0.00000000  0.84004162  0.81852868  1
  Li  Li36  1  0.00000000  0.15065469  0.90326686  1
  Li  Li37  1  0.00000000  0.84934531  0.09673314  1
  Li  Li38  1  -0.00000000  0.34934531  0.40326686  1
  Li  Li39  1  -0.00000000  0.65065469  0.59673314  1
  Li  Li40  1  0.00000000  0.03386561  0.59381793  1
  Li  Li41  1  -0.00000000  0.96613439  0.40618207  1
  Li  Li42  1  0.00000000  0.46613439  0.09381793  1
  Li  Li43  1  -0.00000000  0.53386561  0.90618207  1
