# generated using pymatgen
data_H2He3
_symmetry_space_group_name_H-M   'P 1'
_cell_length_a   6.59563660
_cell_length_b   6.59563660
_cell_length_c   7.66315881
_cell_angle_alpha   79.08382944
_cell_angle_beta   79.08382944
_cell_angle_gamma   81.45740506
_symmetry_Int_Tables_number   1
_chemical_formula_structural   H2He3
_chemical_formula_sum   'H4 He6'
_cell_volume   319.20810124
_cell_formula_units_Z   2
loop_
 _symmetry_equiv_pos_site_id
 _symmetry_equiv_pos_as_xyz
  1  'x, y, z'
loop_
 _atom_site_type_symbol
 _atom_site_label
 _atom_site_symmetry_multiplicity
 _atom_site_fract_x
 _atom_site_fract_y
 _atom_site_fract_z
 _atom_site_occupancy
  H  H0  1  0.32648150  0.57803730  0.85388341  1
  H  H1  1  0.92196270  0.17351850  0.64611659  1
  H  H2  1  0.67351850  0.42196270  0.14611659  1
  H  H3  1  0.07803730  0.82648150  0.35388341  1
  He  He4  1  0.26341480  0.98813328  0.97082977  1
  He  He5  1  0.51186672  0.23658520  0.52917023  1
  He  He6  1  0.73658520  0.01186672  0.02917023  1
  He  He7  1  0.48813328  0.76341480  0.47082977  1
  He  He8  1  0.10754959  0.39245041  0.25000000  1
  He  He9  1  0.89245041  0.60754959  0.75000000  1
