# generated using pymatgen
data_HHeLi
_symmetry_space_group_name_H-M   'P 1'
_cell_length_a   6.82098238
_cell_length_b   6.82099181
_cell_length_c   3.45606570
_cell_angle_alpha   90.00000000
_cell_angle_beta   90.00000000
_cell_angle_gamma   119.99995428
_symmetry_Int_Tables_number   1
_chemical_formula_structural   HHeLi
_chemical_formula_sum   'H3 He3 Li3'
_cell_volume   139.25387118
_cell_formula_units_Z   3
loop_
 _symmetry_equiv_pos_site_id
 _symmetry_equiv_pos_as_xyz
  1  'x, y, z'
loop_
 _atom_site_type_symbol
 _atom_site_label
 _atom_site_symmetry_multiplicity
 _atom_site_fract_x
 _atom_site_fract_y
 _atom_site_fract_z
 _atom_site_occupancy
  H  H0  1  0.00001839  0.75201529  0.00000000  1
  H  H1  1  0.24800310  0.24798471  0.00000000  1
  H  H2  1  0.75198728  -0.00000000  0.00000000  1
  He  He3  1  0.00000254  0.41133011  0.50000000  1
  He  He4  1  0.58867243  0.58866989  0.50000000  1
  He  He5  1  0.41133603  -0.00000000  0.50000000  1
  Li  Li6  1  0.66666256  0.33332444  0.00000000  1
  Li  Li7  1  0.33333812  0.66667556  0.00000000  1
  Li  Li8  1  0.99997955  0.00000000  0.50000000  1
