# generated using pymatgen
data_H4HeLi2
_symmetry_space_group_name_H-M   'P 1'
_cell_length_a   7.26633354
_cell_length_b   7.26633354
_cell_length_c   7.50330185
_cell_angle_alpha   62.01993000
_cell_angle_beta   62.01993000
_cell_angle_gamma   89.96241548
_symmetry_Int_Tables_number   1
_chemical_formula_structural   H4HeLi2
_chemical_formula_sum   'H8 He2 Li4'
_cell_volume   296.48281653
_cell_formula_units_Z   2
loop_
 _symmetry_equiv_pos_site_id
 _symmetry_equiv_pos_as_xyz
  1  'x, y, z'
loop_
 _atom_site_type_symbol
 _atom_site_label
 _atom_site_symmetry_multiplicity
 _atom_site_fract_x
 _atom_site_fract_y
 _atom_site_fract_z
 _atom_site_occupancy
  H  H0  1  0.26638661  0.76299382  0.99361246  1
  H  H1  1  0.23700618  0.73361339  0.50638754  1
  H  H2  1  0.73361339  0.23700618  0.00638754  1
  H  H3  1  0.76299382  0.26638661  0.49361246  1
  H  H4  1  0.27936872  0.25326226  0.97502133  1
  H  H5  1  0.74673774  0.72063128  0.52497867  1
  H  H6  1  0.72063128  0.74673774  0.02497867  1
  H  H7  1  0.25326226  0.27936872  0.47502133  1
  He  He8  1  0.00000000  0.50000000  0.50000000  1
  He  He9  1  0.50000000  0.00000000  0.00000000  1
  Li  Li10  1  0.89203244  0.10796756  0.25000000  1
  Li  Li11  1  0.10796756  0.89203244  0.75000000  1
  Li  Li12  1  0.50000000  0.50000000  0.00000000  1
  Li  Li13  1  0.50000000  0.50000000  0.50000000  1
