# generated using pymatgen
data_H5He3
_symmetry_space_group_name_H-M   'P 1'
_cell_length_a   9.51713164
_cell_length_b   9.51713164
_cell_length_c   9.51713164
_cell_angle_alpha   131.12986428
_cell_angle_beta   131.12986428
_cell_angle_gamma   71.60683304
_symmetry_Int_Tables_number   1
_chemical_formula_structural   H5He3
_chemical_formula_sum   'H10 He6'
_cell_volume   478.52570382
_cell_formula_units_Z   2
loop_
 _symmetry_equiv_pos_site_id
 _symmetry_equiv_pos_as_xyz
  1  'x, y, z'
loop_
 _atom_site_type_symbol
 _atom_site_label
 _atom_site_symmetry_multiplicity
 _atom_site_fract_x
 _atom_site_fract_y
 _atom_site_fract_z
 _atom_site_occupancy
  H  H0  1  0.00000000  0.00000000  -0.00000000  1
  H  H1  1  0.50000000  0.50000000  0.00000000  1
  H  H2  1  0.47754683  0.97754683  0.15936021  1
  H  H3  1  0.81818662  0.31818662  0.84063979  1
  H  H4  1  0.97754683  0.81818662  0.50000000  1
  H  H5  1  0.31818662  0.47754683  0.50000000  1
  H  H6  1  0.68181338  0.52245317  0.50000000  1
  H  H7  1  0.02245317  0.18181338  0.50000000  1
  H  H8  1  0.18181338  0.68181338  0.15936021  1
  H  H9  1  0.52245317  0.02245317  0.84063979  1
  He  He10  1  0.25000000  0.25000000  0.00000000  1
  He  He11  1  0.75000000  0.75000000  -0.00000000  1
  He  He12  1  0.11666678  0.61666678  0.73333355  1
  He  He13  1  0.88333322  0.38333322  0.26666645  1
  He  He14  1  0.61666678  0.88333322  0.50000000  1
  He  He15  1  0.38333322  0.11666678  0.50000000  1
