# generated using pymatgen
data_HHeLi4
_symmetry_space_group_name_H-M   'P 1'
_cell_length_a   7.54967013
_cell_length_b   4.45711060
_cell_length_c   8.23219377
_cell_angle_alpha   86.28060306
_cell_angle_beta   90.00000000
_cell_angle_gamma   90.00000000
_symmetry_Int_Tables_number   1
_chemical_formula_structural   HHeLi4
_chemical_formula_sum   'H2 He2 Li8'
_cell_volume   276.42750808
_cell_formula_units_Z   2
loop_
 _symmetry_equiv_pos_site_id
 _symmetry_equiv_pos_as_xyz
  1  'x, y, z'
loop_
 _atom_site_type_symbol
 _atom_site_label
 _atom_site_symmetry_multiplicity
 _atom_site_fract_x
 _atom_site_fract_y
 _atom_site_fract_z
 _atom_site_occupancy
  H  H0  1  0.00000000  0.50000000  -0.00000000  1
  H  H1  1  0.50000000  0.50000000  0.00000000  1
  He  He2  1  0.25000000  0.02816210  0.34077005  1
  He  He3  1  0.75000000  0.97183790  0.65922995  1
  Li  Li4  1  0.99901860  0.59418018  0.69408185  1
  Li  Li5  1  0.49901860  0.40581982  0.30591815  1
  Li  Li6  1  0.00098140  0.40581982  0.30591815  1
  Li  Li7  1  0.50098140  0.59418018  0.69408185  1
  Li  Li8  1  0.25000000  0.92685913  0.63577472  1
  Li  Li9  1  0.75000000  0.07314087  0.36422528  1
  Li  Li10  1  0.25000000  0.84645745  0.06836922  1
  Li  Li11  1  0.75000000  0.15354255  0.93163078  1
