# generated using pymatgen
data_H3He4
_symmetry_space_group_name_H-M   'P 1'
_cell_length_a   3.55934112
_cell_length_b   7.98182086
_cell_length_c   11.39451182
_cell_angle_alpha   70.61892029
_cell_angle_beta   90.00000000
_cell_angle_gamma   90.00000000
_symmetry_Int_Tables_number   1
_chemical_formula_structural   H3He4
_chemical_formula_sum   'H6 He8'
_cell_volume   305.37396943
_cell_formula_units_Z   2
loop_
 _symmetry_equiv_pos_site_id
 _symmetry_equiv_pos_as_xyz
  1  'x, y, z'
loop_
 _atom_site_type_symbol
 _atom_site_label
 _atom_site_symmetry_multiplicity
 _atom_site_fract_x
 _atom_site_fract_y
 _atom_site_fract_z
 _atom_site_occupancy
  H  H0  1  0.75000000  0.63925338  0.39334261  1
  H  H1  1  0.25000000  0.36074662  0.60665739  1
  H  H2  1  0.75000000  0.47559847  0.81756810  1
  H  H3  1  0.25000000  0.52440153  0.18243190  1
  H  H4  1  0.75000000  0.24074756  0.39950671  1
  H  H5  1  0.25000000  0.75925244  0.60049329  1
  He  He6  1  0.75000000  0.76292202  0.13797985  1
  He  He7  1  0.25000000  0.23707798  0.86202015  1
  He  He8  1  0.75000000  0.30270892  0.16342784  1
  He  He9  1  0.25000000  0.69729108  0.83657216  1
  He  He10  1  0.75000000  0.08722160  0.62298202  1
  He  He11  1  0.25000000  0.91277840  0.37701798  1
  He  He12  1  0.75000000  0.56815834  0.60759847  1
  He  He13  1  0.25000000  0.43184166  0.39240153  1
