# generated using pymatgen
data_H5He8Li10
_symmetry_space_group_name_H-M   'P 1'
_cell_length_a   8.18101690
_cell_length_b   8.18101690
_cell_length_c   5.73664769
_cell_angle_alpha   79.06069071
_cell_angle_beta   79.06069071
_cell_angle_gamma   118.66373489
_symmetry_Int_Tables_number   1
_chemical_formula_structural   H5He8Li10
_chemical_formula_sum   'H5 He8 Li10'
_cell_volume   312.71072078
_cell_formula_units_Z   1
loop_
 _symmetry_equiv_pos_site_id
 _symmetry_equiv_pos_as_xyz
  1  'x, y, z'
loop_
 _atom_site_type_symbol
 _atom_site_label
 _atom_site_symmetry_multiplicity
 _atom_site_fract_x
 _atom_site_fract_y
 _atom_site_fract_z
 _atom_site_occupancy
  H  H0  1  0.62852839  0.82725752  0.22052769  1
  H  H1  1  0.82725752  0.62852839  0.22052769  1
  H  H2  1  0.41693020  0.01921622  0.24908292  1
  H  H3  1  0.01921622  0.41693020  0.24908292  1
  H  H4  1  0.19814147  0.19814147  0.27740147  1
  He  He5  1  0.73430630  0.95617803  0.63586631  1
  He  He6  1  0.95617803  0.73430630  0.63586631  1
  He  He7  1  0.08903518  0.08903518  0.85149159  1
  He  He8  1  0.85400159  0.29591469  0.85646148  1
  He  He9  1  0.29591469  0.85400159  0.85646148  1
  He  He10  1  0.26433489  0.54143694  0.60059201  1
  He  He11  1  0.54143694  0.26433489  0.60059201  1
  He  He12  1  0.52038368  0.52038368  0.90927711  1
  Li  Li13  1  0.78460749  0.78460749  0.96824274  1
  Li  Li14  1  0.65731394  0.65731394  0.47552356  1
  Li  Li15  1  0.35690590  0.15828151  0.02063923  1
  Li  Li16  1  0.15828151  0.35690590  0.02063923  1
  Li  Li17  1  0.47714795  0.87845779  0.47123978  1
  Li  Li18  1  0.87845779  0.47714795  0.47123978  1
  Li  Li19  1  0.56883464  0.98786575  0.99488147  1
  Li  Li20  1  0.98786575  0.56883464  0.99488147  1
  Li  Li21  1  0.26212643  0.04698351  0.50714088  1
  Li  Li22  1  0.04698351  0.26212643  0.50714088  1
