# generated using pymatgen
data_HHe6Li
_symmetry_space_group_name_H-M   'P 1'
_cell_length_a   5.03207931
_cell_length_b   5.44842035
_cell_length_c   5.22818403
_cell_angle_alpha   90.00000000
_cell_angle_beta   90.00000000
_cell_angle_gamma   90.00000000
_symmetry_Int_Tables_number   1
_chemical_formula_structural   HHe6Li
_chemical_formula_sum   'H2 He12 Li2'
_cell_volume   143.34051173
_cell_formula_units_Z   2
loop_
 _symmetry_equiv_pos_site_id
 _symmetry_equiv_pos_as_xyz
  1  'x, y, z'
loop_
 _atom_site_type_symbol
 _atom_site_label
 _atom_site_symmetry_multiplicity
 _atom_site_fract_x
 _atom_site_fract_y
 _atom_site_fract_z
 _atom_site_occupancy
  H  H0  1  0.82537223  -0.00355892  0.00000000  1
  H  H1  1  0.17462777  0.49644108  0.50000000  1
  He  He2  1  0.57923706  0.66163575  0.00000000  1
  He  He3  1  0.42076294  0.16163575  0.50000000  1
  He  He4  1  0.86136555  0.62526331  0.15888560  1
  He  He5  1  0.13863445  0.12526331  0.34111440  1
  He  He6  1  0.13863445  0.12526331  0.65888560  1
  He  He7  1  0.86136555  0.62526331  0.84111440  1
  He  He8  1  0.06709704  0.02824641  0.00000000  1
  He  He9  1  0.93290296  0.52824641  0.50000000  1
  He  He10  1  0.72586519  0.08370142  0.19257684  1
  He  He11  1  0.27413481  0.58370142  0.30742316  1
  He  He12  1  0.27413481  0.58370142  0.69257684  1
  He  He13  1  0.72586519  0.08370142  0.80742316  1
  Li  Li14  1  0.77726372  0.70674731  0.00000000  1
  Li  Li15  1  0.22273628  0.20674731  0.50000000  1
