# generated using pymatgen
data_H4He3LiBeBC4
_symmetry_space_group_name_H-M   'P 1'
_cell_length_a   9.18092451
_cell_length_b   11.72982382
_cell_length_c   12.09791165
_cell_angle_alpha   73.02665505
_cell_angle_beta   90.00000000
_cell_angle_gamma   90.00000000
_symmetry_Int_Tables_number   1
_chemical_formula_structural   H4He3LiBeBC4
_chemical_formula_sum   'H16 He12 Li4 Be4 B4 C16'
_cell_volume   1246.08121435
_cell_formula_units_Z   4
loop_
 _symmetry_equiv_pos_site_id
 _symmetry_equiv_pos_as_xyz
  1  'x, y, z'
loop_
 _atom_site_type_symbol
 _atom_site_label
 _atom_site_symmetry_multiplicity
 _atom_site_fract_x
 _atom_site_fract_y
 _atom_site_fract_z
 _atom_site_occupancy
  H  H0  1  0.84464707  0.67229476  0.28878492  1
  H  H1  1  0.34464707  0.82770524  0.71121508  1
  H  H2  1  0.15535293  0.32770524  0.71121508  1
  H  H3  1  0.65535293  0.17229476  0.28878492  1
  H  H4  1  0.76453784  0.55076164  0.50501404  1
  H  H5  1  0.26453784  0.94923836  0.49498596  1
  H  H6  1  0.23546216  0.44923836  0.49498596  1
  H  H7  1  0.73546216  0.05076164  0.50501404  1
  H  H8  1  0.61213702  0.74236040  0.43160400  1
  H  H9  1  0.11213702  0.75763960  0.56839600  1
  H  H10  1  0.38786298  0.25763960  0.56839600  1
  H  H11  1  0.88786298  0.24236040  0.43160400  1
  H  H12  1  0.58289945  0.52176360  0.34226750  1
  H  H13  1  0.08289945  0.97823640  0.65773250  1
  H  H14  1  0.41710055  0.47823640  0.65773250  1
  H  H15  1  0.91710055  0.02176360  0.34226750  1
  He  He16  1  0.14342578  0.55998948  0.86634527  1
  He  He17  1  0.64342578  0.94001052  0.13365473  1
  He  He18  1  0.85657422  0.44001052  0.13365473  1
  He  He19  1  0.35657422  0.05998948  0.86634527  1
  He  He20  1  0.04357459  0.81913188  0.94335557  1
  He  He21  1  0.54357459  0.68086812  0.05664443  1
  He  He22  1  0.95642541  0.18086812  0.05664443  1
  He  He23  1  0.45642541  0.31913188  0.94335557  1
  He  He24  1  0.31971607  0.78490884  0.24037154  1
  He  He25  1  0.81971607  0.71509116  0.75962846  1
  He  He26  1  0.68028393  0.21509116  0.75962846  1
  He  He27  1  0.18028393  0.28490884  0.24037154  1
  Li  Li28  1  0.68644331  0.63419203  0.37392323  1
  Li  Li29  1  0.18644331  0.86580797  0.62607677  1
  Li  Li30  1  0.31355669  0.36580797  0.62607677  1
  Li  Li31  1  0.81355669  0.13419203  0.37392323  1
  Be  Be32  1  0.05675381  0.74547192  0.79163167  1
  Be  Be33  1  0.55675381  0.75452808  0.20836833  1
  Be  Be34  1  0.94324619  0.25452808  0.20836833  1
  Be  Be35  1  0.44324619  0.24547192  0.79163167  1
  B  B36  1  0.19187129  0.57943171  0.12663194  1
  B  B37  1  0.69187129  0.92056829  0.87336806  1
  B  B38  1  0.80812871  0.42056829  0.87336806  1
  B  B39  1  0.30812871  0.07943171  0.12663194  1
  C  C40  1  0.95280547  0.69188611  0.23703735  1
  C  C41  1  0.45280547  0.80811389  0.76296265  1
  C  C42  1  0.04719453  0.30811389  0.76296265  1
  C  C43  1  0.54719453  0.19188611  0.23703735  1
  C  C44  1  0.81277027  0.49878271  0.59385471  1
  C  C45  1  0.31277027  0.00121729  0.40614529  1
  C  C46  1  0.18722973  0.50121729  0.40614529  1
  C  C47  1  0.68722973  0.99878271  0.59385471  1
  C  C48  1  0.56811026  0.81144986  0.47518878  1
  C  C49  1  0.06811026  0.68855014  0.52481122  1
  C  C50  1  0.43188974  0.18855014  0.52481122  1
  C  C51  1  0.93188974  0.31144986  0.47518878  1
  C  C52  1  0.51798025  0.44488862  0.32260825  1
  C  C53  1  0.01798025  0.05511138  0.67739175  1
  C  C54  1  0.48201975  0.55511138  0.67739175  1
  C  C55  1  0.98201975  0.94488862  0.32260825  1
