# generated using pymatgen
data_HHe4Li2
_symmetry_space_group_name_H-M   'P 1'
_cell_length_a   8.23918957
_cell_length_b   8.23918957
_cell_length_c   8.23918957
_cell_angle_alpha   60.00000000
_cell_angle_beta   60.00000000
_cell_angle_gamma   60.00000000
_symmetry_Int_Tables_number   1
_chemical_formula_structural   HHe4Li2
_chemical_formula_sum   'H4 He16 Li8'
_cell_volume   395.49271563
_cell_formula_units_Z   4
loop_
 _symmetry_equiv_pos_site_id
 _symmetry_equiv_pos_as_xyz
  1  'x, y, z'
loop_
 _atom_site_type_symbol
 _atom_site_label
 _atom_site_symmetry_multiplicity
 _atom_site_fract_x
 _atom_site_fract_y
 _atom_site_fract_z
 _atom_site_occupancy
  H  H0  1  0.50000000  0.50000000  0.50000000  1
  H  H1  1  0.50000000  -0.00000000  0.50000000  1
  H  H2  1  0.50000000  0.00000000  -0.00000000  1
  H  H3  1  -0.00000000  0.00000000  0.50000000  1
  He  He4  1  -0.00000000  0.00000000  -0.00000000  1
  He  He5  1  -0.00000000  0.50000000  -0.00000000  1
  He  He6  1  0.00000000  0.50000000  0.50000000  1
  He  He7  1  0.50000000  0.50000000  0.00000000  1
  He  He8  1  0.80741734  0.30741734  0.44258266  1
  He  He9  1  0.44258266  0.94258266  0.80741734  1
  He  He10  1  0.44258266  0.30741734  0.80741734  1
  He  He11  1  0.80741734  0.94258266  0.44258266  1
  He  He12  1  0.44258266  0.30741734  0.44258266  1
  He  He13  1  0.80741734  0.94258266  0.80741734  1
  He  He14  1  0.19258266  0.05741734  0.55741734  1
  He  He15  1  0.55741734  0.69258266  0.19258266  1
  He  He16  1  0.55741734  0.05741734  0.19258266  1
  He  He17  1  0.19258266  0.69258266  0.55741734  1
  He  He18  1  0.55741734  0.69258266  0.55741734  1
  He  He19  1  0.19258266  0.05741734  0.19258266  1
  Li  Li20  1  0.20455412  0.38633765  0.20455412  1
  Li  Li21  1  0.20455412  0.70455412  0.20455412  1
  Li  Li22  1  0.20455412  0.70455412  0.88633765  1
  Li  Li23  1  0.88633765  0.70455412  0.20455412  1
  Li  Li24  1  0.79544588  0.29544588  0.79544588  1
  Li  Li25  1  0.79544588  0.61366235  0.79544588  1
  Li  Li26  1  0.79544588  0.29544588  0.11366235  1
  Li  Li27  1  0.11366235  0.29544588  0.79544588  1
