# generated using pymatgen
data_H3HeLi7Be
_symmetry_space_group_name_H-M   'P 1'
_cell_length_a   10.33637854
_cell_length_b   10.33647279
_cell_length_c   5.82404559
_cell_angle_alpha   90.00000000
_cell_angle_beta   90.00000000
_cell_angle_gamma   119.99970617
_symmetry_Int_Tables_number   1
_chemical_formula_structural   H3HeLi7Be
_chemical_formula_sum   'H6 He2 Li14 Be2'
_cell_volume   538.88668805
_cell_formula_units_Z   2
loop_
 _symmetry_equiv_pos_site_id
 _symmetry_equiv_pos_as_xyz
  1  'x, y, z'
loop_
 _atom_site_type_symbol
 _atom_site_label
 _atom_site_symmetry_multiplicity
 _atom_site_fract_x
 _atom_site_fract_y
 _atom_site_fract_z
 _atom_site_occupancy
  H  H0  1  0.35705119  0.23301083  0.25017306  1
  H  H1  1  0.76699030  0.12404871  0.25017458  1
  H  H2  1  0.87596130  0.64295836  0.25018353  1
  H  H3  1  0.64294881  0.76698917  0.75017306  1
  H  H4  1  0.23300970  0.87595129  0.75017458  1
  H  H5  1  0.12403870  0.35704164  0.75018353  1
  He  He6  1  0.99999928  0.00000043  0.27282542  1
  He  He7  1  0.00000072  0.99999957  0.77282542  1
  Li  Li8  1  0.24998007  0.16399272  0.76304138  1
  Li  Li9  1  0.83599674  0.08597912  0.76303848  1
  Li  Li10  1  0.91401992  0.75002067  0.76303920  1
  Li  Li11  1  0.75001993  0.83600728  0.26304138  1
  Li  Li12  1  0.16400326  0.91402088  0.26303848  1
  Li  Li13  1  0.08598008  0.24997933  0.26303920  1
  Li  Li14  1  0.52543534  0.11479593  0.52319975  1
  Li  Li15  1  0.88521940  0.41065071  0.52318386  1
  Li  Li16  1  0.58935531  0.47457608  0.52317930  1
  Li  Li17  1  0.47456466  0.88520407  0.02319975  1
  Li  Li18  1  0.11478060  0.58934929  0.02318386  1
  Li  Li19  1  0.41064469  0.52542392  0.02317930  1
  Li  Li20  1  0.66667480  0.33335130  0.02741141  1
  Li  Li21  1  0.33332520  0.66664870  0.52741141  1
  Be  Be22  1  0.66667427  0.33334752  0.66455003  1
  Be  Be23  1  0.33332573  0.66665248  0.16455003  1
