# generated using pymatgen
data_H8He3
_symmetry_space_group_name_H-M   'P 1'
_cell_length_a   9.70037574
_cell_length_b   9.77546588
_cell_length_c   9.62159990
_cell_angle_alpha   78.80633626
_cell_angle_beta   60.23312629
_cell_angle_gamma   69.64269627
_symmetry_Int_Tables_number   1
_chemical_formula_structural   H8He3
_chemical_formula_sum   'H16 He6'
_cell_volume   742.26578695
_cell_formula_units_Z   2
loop_
 _symmetry_equiv_pos_site_id
 _symmetry_equiv_pos_as_xyz
  1  'x, y, z'
loop_
 _atom_site_type_symbol
 _atom_site_label
 _atom_site_symmetry_multiplicity
 _atom_site_fract_x
 _atom_site_fract_y
 _atom_site_fract_z
 _atom_site_occupancy
  H  H0  1  0.72933306  0.89234276  0.34871079  1
  H  H1  1  0.27066694  0.10765724  0.65128921  1
  H  H2  1  0.00075878  0.11144495  0.29766541  1
  H  H3  1  0.99924122  0.88855505  0.70233459  1
  H  H4  1  0.20180704  0.34982933  0.33116717  1
  H  H5  1  0.79819296  0.65017067  0.66883283  1
  H  H6  1  0.09947341  0.64699278  0.02168432  1
  H  H7  1  0.90052659  0.35300722  0.97831568  1
  H  H8  1  0.62077996  0.11102728  0.04565674  1
  H  H9  1  0.37922004  0.88897272  0.95434326  1
  H  H10  1  0.20833395  0.70376478  0.33242231  1
  H  H11  1  0.79166605  0.29623522  0.66757769  1
  H  H12  1  0.65438313  0.70167087  0.11865929  1
  H  H13  1  0.34561687  0.29832913  0.88134071  1
  H  H14  1  0.56093481  0.32975861  0.39792965  1
  H  H15  1  0.43906519  0.67024139  0.60207035  1
  He  He16  1  0.00000000  -0.00000000  -0.00000000  1
  He  He17  1  0.50000000  0.50000000  -0.00000000  1
  He  He18  1  0.83793922  0.49953507  0.33503578  1
  He  He19  1  0.16206078  0.50046493  0.66496422  1
  He  He20  1  0.33984208  0.97361283  0.33671622  1
  He  He21  1  0.66015792  0.02638717  0.66328378  1
