# generated using pymatgen
data_H2He6Li21Be2
_symmetry_space_group_name_H-M   'P 1'
_cell_length_a   8.92756371
_cell_length_b   8.92756371
_cell_length_c   9.77013224
_cell_angle_alpha   83.54865187
_cell_angle_beta   83.54865187
_cell_angle_gamma   37.54363600
_symmetry_Int_Tables_number   1
_chemical_formula_structural   H2He6Li21Be2
_chemical_formula_sum   'H2 He6 Li21 Be2'
_cell_volume   471.15560917
_cell_formula_units_Z   1
loop_
 _symmetry_equiv_pos_site_id
 _symmetry_equiv_pos_as_xyz
  1  'x, y, z'
loop_
 _atom_site_type_symbol
 _atom_site_label
 _atom_site_symmetry_multiplicity
 _atom_site_fract_x
 _atom_site_fract_y
 _atom_site_fract_z
 _atom_site_occupancy
  H  H0  1  0.86138455  0.86138455  0.52472878  1
  H  H1  1  0.13861545  0.13861545  0.47527122  1
  He  He2  1  0.09881574  0.09881574  0.08266754  1
  He  He3  1  0.90118426  0.90118426  0.91733246  1
  He  He4  1  0.48001105  0.48001105  0.66342166  1
  He  He5  1  0.51998895  0.51998895  0.33657834  1
  He  He6  1  0.67636094  0.67636094  0.82899356  1
  He  He7  1  0.32363906  0.32363906  0.17100644  1
  Li  Li8  1  0.72121111  0.27878889  0.50000000  1
  Li  Li9  1  0.27878889  0.72121111  0.50000000  1
  Li  Li10  1  0.64149781  0.64149781  0.39721654  1
  Li  Li11  1  0.35850219  0.35850219  0.60278346  1
  Li  Li12  1  0.02214884  0.53959417  0.32980441  1
  Li  Li13  1  0.46040583  0.97785116  0.67019559  1
  Li  Li14  1  0.97785116  0.46040583  0.67019559  1
  Li  Li15  1  0.53959417  0.02214884  0.32980441  1
  Li  Li16  1  0.89530168  0.39307680  0.94555386  1
  Li  Li17  1  0.60692320  0.10469832  0.05444614  1
  Li  Li18  1  0.10469832  0.60692320  0.05444614  1
  Li  Li19  1  0.39307680  0.89530168  0.94555386  1
  Li  Li20  1  0.17573020  0.69249884  0.77976289  1
  Li  Li21  1  0.30750116  0.82426980  0.22023711  1
  Li  Li22  1  0.82426980  0.30750116  0.22023711  1
  Li  Li23  1  0.69249884  0.17573020  0.77976289  1
  Li  Li24  1  -0.00000000  -0.00000000  -0.00000000  1
  Li  Li25  1  0.79001891  0.79001891  0.85341260  1
  Li  Li26  1  0.20998109  0.20998109  0.14658740  1
  Li  Li27  1  0.58194536  0.58194536  0.72007155  1
  Li  Li28  1  0.41805464  0.41805464  0.27992845  1
  Be  Be29  1  0.72423242  0.72423242  0.24742530  1
  Be  Be30  1  0.27576758  0.27576758  0.75257470  1
