# generated using pymatgen
data_HHeLiBe3
_symmetry_space_group_name_H-M   'P 1'
_cell_length_a   4.56875185
_cell_length_b   12.02697506
_cell_length_c   15.02055601
_cell_angle_alpha   90.00000000
_cell_angle_beta   90.00000000
_cell_angle_gamma   90.00000000
_symmetry_Int_Tables_number   1
_chemical_formula_structural   HHeLiBe3
_chemical_formula_sum   'H4 He4 Li4 Be12'
_cell_volume   825.35348497
_cell_formula_units_Z   4
loop_
 _symmetry_equiv_pos_site_id
 _symmetry_equiv_pos_as_xyz
  1  'x, y, z'
loop_
 _atom_site_type_symbol
 _atom_site_label
 _atom_site_symmetry_multiplicity
 _atom_site_fract_x
 _atom_site_fract_y
 _atom_site_fract_z
 _atom_site_occupancy
  H  H0  1  0.25000000  0.27025437  0.99847410  1
  H  H1  1  0.75000000  0.22974563  0.49847410  1
  H  H2  1  0.75000000  0.72974563  0.00152590  1
  H  H3  1  0.25000000  0.77025437  0.50152590  1
  He  He4  1  0.25000000  0.24182813  0.71749576  1
  He  He5  1  0.75000000  0.25817187  0.21749576  1
  He  He6  1  0.75000000  0.75817187  0.28250424  1
  He  He7  1  0.25000000  0.74182813  0.78250424  1
  Li  Li8  1  0.25000000  0.01260842  0.24301121  1
  Li  Li9  1  0.75000000  0.48739158  0.74301121  1
  Li  Li10  1  0.75000000  0.98739158  0.75698879  1
  Li  Li11  1  0.25000000  0.51260842  0.25698879  1
  Be  Be12  1  0.25000000  0.05799577  0.61402798  1
  Be  Be13  1  0.75000000  0.44200423  0.11402798  1
  Be  Be14  1  0.75000000  0.94200423  0.38597202  1
  Be  Be15  1  0.25000000  0.55799577  0.88597202  1
  Be  Be16  1  0.25000000  0.25903737  0.32203456  1
  Be  Be17  1  0.75000000  0.24096263  0.82203456  1
  Be  Be18  1  0.75000000  0.74096263  0.67796544  1
  Be  Be19  1  0.25000000  0.75903737  0.17796544  1
  Be  Be20  1  0.25000000  0.41279853  0.60409129  1
  Be  Be21  1  0.75000000  0.08720147  0.10409129  1
  Be  Be22  1  0.75000000  0.58720147  0.39590871  1
  Be  Be23  1  0.25000000  0.91279853  0.89590871  1
