# generated using pymatgen
data_HHeLi2
_symmetry_space_group_name_H-M   'P 1'
_cell_length_a   6.89080084
_cell_length_b   6.89080084
_cell_length_c   6.89080084
_cell_angle_alpha   131.22090261
_cell_angle_beta   131.22090261
_cell_angle_gamma   71.46234536
_symmetry_Int_Tables_number   1
_chemical_formula_structural   HHeLi2
_chemical_formula_sum   'H2 He2 Li4'
_cell_volume   181.16330835
_cell_formula_units_Z   2
loop_
 _symmetry_equiv_pos_site_id
 _symmetry_equiv_pos_as_xyz
  1  'x, y, z'
loop_
 _atom_site_type_symbol
 _atom_site_label
 _atom_site_symmetry_multiplicity
 _atom_site_fract_x
 _atom_site_fract_y
 _atom_site_fract_z
 _atom_site_occupancy
  H  H0  1  0.00000000  -0.00000000  0.00000000  1
  H  H1  1  0.75000000  0.25000000  0.50000000  1
  He  He2  1  0.50000000  0.50000000  0.00000000  1
  He  He3  1  0.25000000  0.75000000  0.50000000  1
  Li  Li4  1  0.62615638  0.62500000  0.50115638  1
  Li  Li5  1  0.12384362  0.12500000  0.49884362  1
  Li  Li6  1  0.87500000  0.37384362  0.99884362  1
  Li  Li7  1  0.37500000  0.87615638  0.00115638  1
