# generated using pymatgen
data_H3He5
_symmetry_space_group_name_H-M   'P 1'
_cell_length_a   8.18121109
_cell_length_b   9.44749638
_cell_length_c   11.91952034
_cell_angle_alpha   90.00000000
_cell_angle_beta   90.00000000
_cell_angle_gamma   90.00000000
_symmetry_Int_Tables_number   1
_chemical_formula_structural   H3He5
_chemical_formula_sum   'H12 He20'
_cell_volume   921.28311521
_cell_formula_units_Z   4
loop_
 _symmetry_equiv_pos_site_id
 _symmetry_equiv_pos_as_xyz
  1  'x, y, z'
loop_
 _atom_site_type_symbol
 _atom_site_label
 _atom_site_symmetry_multiplicity
 _atom_site_fract_x
 _atom_site_fract_y
 _atom_site_fract_z
 _atom_site_occupancy
  H  H0  1  0.06613872  0.99639945  0.17424129  1
  H  H1  1  0.43386128  0.00360055  0.67424129  1
  H  H2  1  0.93386128  0.49639945  0.82575871  1
  H  H3  1  0.56613872  0.50360055  0.32575871  1
  H  H4  1  0.93386128  0.00360055  0.82575871  1
  H  H5  1  0.56613872  0.99639945  0.32575871  1
  H  H6  1  0.06613872  0.50360055  0.17424129  1
  H  H7  1  0.43386128  0.49639945  0.67424129  1
  H  H8  1  0.09197207  0.25000000  0.45748512  1
  H  H9  1  0.40802793  0.75000000  0.95748512  1
  H  H10  1  0.90802793  0.75000000  0.54251488  1
  H  H11  1  0.59197207  0.25000000  0.04251488  1
  He  He12  1  0.47551792  0.25000000  0.48911366  1
  He  He13  1  0.02448208  0.75000000  0.98911366  1
  He  He14  1  0.52448208  0.75000000  0.51088634  1
  He  He15  1  0.97551792  0.25000000  0.01088634  1
  He  He16  1  0.31331246  0.25000000  0.21871469  1
  He  He17  1  0.18668754  0.75000000  0.71871469  1
  He  He18  1  0.68668754  0.75000000  0.78128531  1
  He  He19  1  0.81331246  0.25000000  0.28128531  1
  He  He20  1  0.19392034  0.56407437  0.44042541  1
  He  He21  1  0.30607966  0.43592563  0.94042541  1
  He  He22  1  0.80607966  0.06407437  0.55957459  1
  He  He23  1  0.69392034  0.93592563  0.05957459  1
  He  He24  1  0.80607966  0.43592563  0.55957459  1
  He  He25  1  0.69392034  0.56407437  0.05957459  1
  He  He26  1  0.19392034  0.93592563  0.44042541  1
  He  He27  1  0.30607966  0.06407437  0.94042541  1
  He  He28  1  0.14537585  0.25000000  0.71562907  1
  He  He29  1  0.35462415  0.75000000  0.21562907  1
  He  He30  1  0.85462415  0.75000000  0.28437093  1
  He  He31  1  0.64537585  0.25000000  0.78437093  1
