# generated using pymatgen
data_HHeLi
_symmetry_space_group_name_H-M   'P 1'
_cell_length_a   4.19572474
_cell_length_b   7.14309704
_cell_length_c   7.44732626
_cell_angle_alpha   90.00192583
_cell_angle_beta   90.00000000
_cell_angle_gamma   90.00000000
_symmetry_Int_Tables_number   1
_chemical_formula_structural   HHeLi
_chemical_formula_sum   'H4 He4 Li4'
_cell_volume   223.19986045
_cell_formula_units_Z   4
loop_
 _symmetry_equiv_pos_site_id
 _symmetry_equiv_pos_as_xyz
  1  'x, y, z'
loop_
 _atom_site_type_symbol
 _atom_site_label
 _atom_site_symmetry_multiplicity
 _atom_site_fract_x
 _atom_site_fract_y
 _atom_site_fract_z
 _atom_site_occupancy
  H  H0  1  0.25000000  0.13897465  0.43194869  1
  H  H1  1  0.75000000  0.36104390  0.93194573  1
  H  H2  1  0.75000000  0.86102535  0.56805131  1
  H  H3  1  0.25000000  0.63895610  0.06805427  1
  He  He4  1  0.25000000  0.78984904  0.39658401  1
  He  He5  1  0.75000000  0.71015693  0.89661834  1
  He  He6  1  0.75000000  0.21015096  0.60341599  1
  He  He7  1  0.25000000  0.28984307  0.10338166  1
  Li  Li8  1  0.25000000  0.99629734  0.81866823  1
  Li  Li9  1  0.75000000  0.50373220  0.31870717  1
  Li  Li10  1  0.75000000  0.00370266  0.18133177  1
  Li  Li11  1  0.25000000  0.49626780  0.68129283  1
