# generated using pymatgen
data_H3HeLi4
_symmetry_space_group_name_H-M   'P 1'
_cell_length_a   6.98070770
_cell_length_b   7.29520722
_cell_length_c   8.23756556
_cell_angle_alpha   90.00000000
_cell_angle_beta   90.00000000
_cell_angle_gamma   89.99979146
_symmetry_Int_Tables_number   1
_chemical_formula_structural   H3HeLi4
_chemical_formula_sum   'H6 He2 Li8'
_cell_volume   419.50386815
_cell_formula_units_Z   2
loop_
 _symmetry_equiv_pos_site_id
 _symmetry_equiv_pos_as_xyz
  1  'x, y, z'
loop_
 _atom_site_type_symbol
 _atom_site_label
 _atom_site_symmetry_multiplicity
 _atom_site_fract_x
 _atom_site_fract_y
 _atom_site_fract_z
 _atom_site_occupancy
  H  H0  1  0.51825417  0.64275205  0.50000000  1
  H  H1  1  0.01831988  0.35719891  0.00000000  1
  H  H2  1  0.98426434  0.80918668  0.26312928  1
  H  H3  1  0.48427968  0.19082375  0.23685373  1
  H  H4  1  0.48427968  0.19082375  0.76314627  1
  H  H5  1  0.98426434  0.80918668  0.73687072  1
  He  He6  1  0.00440840  0.31459154  0.50000000  1
  He  He7  1  0.50440995  0.68542266  0.00000000  1
  Li  Li8  1  0.68339273  0.30846126  0.50000000  1
  Li  Li9  1  0.18339213  0.69152964  0.00000000  1
  Li  Li10  1  0.12747972  0.59840040  0.50000000  1
  Li  Li11  1  0.62751220  0.40162293  0.00000000  1
  Li  Li12  1  0.60603962  0.83631341  0.22350997  1
  Li  Li13  1  0.10605678  0.16368646  0.27650194  1
  Li  Li14  1  0.10605678  0.16368646  0.72349806  1
  Li  Li15  1  0.60603962  0.83631341  0.77649003  1
