# generated using pymatgen
data_H2HeLiBe2
_symmetry_space_group_name_H-M   'P 1'
_cell_length_a   5.99235324
_cell_length_b   5.99235324
_cell_length_c   5.99235324
_cell_angle_alpha   142.25835853
_cell_angle_beta   142.25835853
_cell_angle_gamma   54.43981837
_symmetry_Int_Tables_number   1
_chemical_formula_structural   H2HeLiBe2
_chemical_formula_sum   'H2 He1 Li1 Be2'
_cell_volume   80.06731634
_cell_formula_units_Z   1
loop_
 _symmetry_equiv_pos_site_id
 _symmetry_equiv_pos_as_xyz
  1  'x, y, z'
loop_
 _atom_site_type_symbol
 _atom_site_label
 _atom_site_symmetry_multiplicity
 _atom_site_fract_x
 _atom_site_fract_y
 _atom_site_fract_z
 _atom_site_occupancy
  H  H0  1  0.36050522  0.36050522  0.00000000  1
  H  H1  1  0.63949478  0.63949478  0.00000000  1
  He  He2  1  0.50000000  0.50000000  -0.00000000  1
  Li  Li3  1  -0.00000000  0.00000000  0.00000000  1
  Be  Be4  1  0.75000000  0.25000000  0.50000000  1
  Be  Be5  1  0.25000000  0.75000000  0.50000000  1
