# generated using pymatgen
data_H3HeLi
_symmetry_space_group_name_H-M   'P 1'
_cell_length_a   10.63063933
_cell_length_b   5.42507974
_cell_length_c   9.28026965
_cell_angle_alpha   89.89035674
_cell_angle_beta   90.00000000
_cell_angle_gamma   90.00000000
_symmetry_Int_Tables_number   1
_chemical_formula_structural   H3HeLi
_chemical_formula_sum   'H24 He8 Li8'
_cell_volume   535.21134393
_cell_formula_units_Z   8
loop_
 _symmetry_equiv_pos_site_id
 _symmetry_equiv_pos_as_xyz
  1  'x, y, z'
loop_
 _atom_site_type_symbol
 _atom_site_label
 _atom_site_symmetry_multiplicity
 _atom_site_fract_x
 _atom_site_fract_y
 _atom_site_fract_z
 _atom_site_occupancy
  H  H0  1  0.38346934  0.75017549  0.14050900  1
  H  H1  1  0.88346934  0.74982451  0.85949100  1
  H  H2  1  0.61653066  0.24982451  0.85949100  1
  H  H3  1  0.11653066  0.25017549  0.14050900  1
  H  H4  1  0.88187135  0.24952649  0.64144186  1
  H  H5  1  0.38187135  0.25047351  0.35855814  1
  H  H6  1  0.11812865  0.75047351  0.35855814  1
  H  H7  1  0.61812865  0.74952649  0.64144186  1
  H  H8  1  0.44865970  0.74903758  0.85903357  1
  H  H9  1  0.94865970  0.75096242  0.14096643  1
  H  H10  1  0.55134030  0.25096242  0.14096643  1
  H  H11  1  0.05134030  0.24903758  0.85903357  1
  H  H12  1  0.94904907  0.25058814  0.35971319  1
  H  H13  1  0.44904907  0.24941186  0.64028681  1
  H  H14  1  0.05095093  0.74941186  0.64028681  1
  H  H15  1  0.55095093  0.75058814  0.35971319  1
  H  H16  1  0.24856467  0.50285051  0.94682922  1
  H  H17  1  0.74856467  0.99714949  0.05317078  1
  H  H18  1  0.75143533  0.49714949  0.05317078  1
  H  H19  1  0.25143533  0.00285051  0.94682922  1
  H  H20  1  0.74945384  0.00174308  0.44597165  1
  H  H21  1  0.24945384  0.49825692  0.55402835  1
  H  H22  1  0.25054616  0.99825692  0.55402835  1
  H  H23  1  0.75054616  0.50174308  0.44597165  1
  He  He24  1  0.33262904  0.75108120  0.97418679  1
  He  He25  1  0.83262904  0.74891880  0.02581321  1
  He  He26  1  0.66737096  0.24891880  0.02581321  1
  He  He27  1  0.16737096  0.25108120  0.97418679  1
  He  He28  1  0.83256008  0.25060324  0.47463152  1
  He  He29  1  0.33256008  0.24939676  0.52536848  1
  He  He30  1  0.16743992  0.74939676  0.52536848  1
  He  He31  1  0.66743992  0.75060324  0.47463152  1
  Li  Li32  1  0.53264065  -0.00065141  0.75018534  1
  Li  Li33  1  0.03264065  0.50065141  0.24981466  1
  Li  Li34  1  0.46735935  0.00065141  0.24981466  1
  Li  Li35  1  0.96735935  0.49934859  0.75018534  1
  Li  Li36  1  0.96794682  -0.00054988  0.74982866  1
  Li  Li37  1  0.46794682  0.50054988  0.25017134  1
  Li  Li38  1  0.03205318  0.00054988  0.25017134  1
  Li  Li39  1  0.53205318  0.49945012  0.74982866  1
