# generated using pymatgen
data_HHeLi2
_symmetry_space_group_name_H-M   'P 1'
_cell_length_a   2.98792884
_cell_length_b   2.98792754
_cell_length_c   11.67015854
_cell_angle_alpha   90.00000000
_cell_angle_beta   90.00000000
_cell_angle_gamma   120.00001440
_symmetry_Int_Tables_number   1
_chemical_formula_structural   HHeLi2
_chemical_formula_sum   'H2 He2 Li4'
_cell_volume   90.22931004
_cell_formula_units_Z   2
loop_
 _symmetry_equiv_pos_site_id
 _symmetry_equiv_pos_as_xyz
  1  'x, y, z'
loop_
 _atom_site_type_symbol
 _atom_site_label
 _atom_site_symmetry_multiplicity
 _atom_site_fract_x
 _atom_site_fract_y
 _atom_site_fract_z
 _atom_site_occupancy
  H  H0  1  -0.00000000  0.00000000  0.00000000  1
  H  H1  1  0.00000000  -0.00000000  0.50000000  1
  He  He2  1  0.33334061  0.66668122  0.25000000  1
  He  He3  1  0.66665939  0.33331878  0.75000000  1
  Li  Li4  1  0.66667542  0.33335084  0.13757642  1
  Li  Li5  1  0.33332458  0.66664916  0.63757642  1
  Li  Li6  1  0.33332458  0.66664916  0.86242358  1
  Li  Li7  1  0.66667542  0.33335084  0.36242358  1
