# generated using pymatgen
data_HHe2Li
_symmetry_space_group_name_H-M   'P 1'
_cell_length_a   8.15058339
_cell_length_b   8.15058339
_cell_length_c   8.15058339
_cell_angle_alpha   109.89576674
_cell_angle_beta   109.89576674
_cell_angle_gamma   109.89576674
_symmetry_Int_Tables_number   1
_chemical_formula_structural   HHe2Li
_chemical_formula_sum   'H6 He12 Li6'
_cell_volume   410.13338518
_cell_formula_units_Z   6
loop_
 _symmetry_equiv_pos_site_id
 _symmetry_equiv_pos_as_xyz
  1  'x, y, z'
loop_
 _atom_site_type_symbol
 _atom_site_label
 _atom_site_symmetry_multiplicity
 _atom_site_fract_x
 _atom_site_fract_y
 _atom_site_fract_z
 _atom_site_occupancy
  H  H0  1  0.85916159  0.64083841  0.75000000  1
  H  H1  1  0.64083841  0.75000000  0.85916159  1
  H  H2  1  0.75000000  0.85916159  0.64083841  1
  H  H3  1  0.14083841  0.35916159  0.25000000  1
  H  H4  1  0.35916159  0.25000000  0.14083841  1
  H  H5  1  0.25000000  0.14083841  0.35916159  1
  He  He6  1  0.95854234  0.54145766  0.75000000  1
  He  He7  1  0.54145766  0.75000000  0.95854234  1
  He  He8  1  0.75000000  0.95854234  0.54145766  1
  He  He9  1  0.04145766  0.45854234  0.25000000  1
  He  He10  1  0.45854234  0.25000000  0.04145766  1
  He  He11  1  0.25000000  0.04145766  0.45854234  1
  He  He12  1  0.75000000  0.64559108  0.85440892  1
  He  He13  1  0.64559108  0.85440892  0.75000000  1
  He  He14  1  0.85440892  0.75000000  0.64559108  1
  He  He15  1  0.25000000  0.35440892  0.14559108  1
  He  He16  1  0.35440892  0.14559108  0.25000000  1
  He  He17  1  0.14559108  0.25000000  0.35440892  1
  Li  Li18  1  0.18932799  0.31067201  0.75000000  1
  Li  Li19  1  0.31067201  0.75000000  0.18932799  1
  Li  Li20  1  0.75000000  0.18932799  0.31067201  1
  Li  Li21  1  0.81067201  0.68932799  0.25000000  1
  Li  Li22  1  0.68932799  0.25000000  0.81067201  1
  Li  Li23  1  0.25000000  0.81067201  0.68932799  1
