# generated using pymatgen
data_H3He
_symmetry_space_group_name_H-M   'P 1'
_cell_length_a   7.18536569
_cell_length_b   7.18536569
_cell_length_c   7.34631544
_cell_angle_alpha   90.05190789
_cell_angle_beta   89.94809211
_cell_angle_gamma   120.00025500
_symmetry_Int_Tables_number   1
_chemical_formula_structural   H3He
_chemical_formula_sum   'H18 He6'
_cell_volume   328.47067416
_cell_formula_units_Z   6
loop_
 _symmetry_equiv_pos_site_id
 _symmetry_equiv_pos_as_xyz
  1  'x, y, z'
loop_
 _atom_site_type_symbol
 _atom_site_label
 _atom_site_symmetry_multiplicity
 _atom_site_fract_x
 _atom_site_fract_y
 _atom_site_fract_z
 _atom_site_occupancy
  H  H0  1  0.37173642  0.06281671  0.07963349  1
  H  H1  1  0.93723423  0.30898861  0.07961983  1
  H  H2  1  0.69095088  0.62827380  0.07958286  1
  H  H3  1  0.06281671  0.37173642  0.42036651  1
  H  H4  1  0.30898861  0.93723423  0.42038017  1
  H  H5  1  0.62827380  0.69095088  0.42041714  1
  H  H6  1  0.62826358  0.93718329  0.92036651  1
  H  H7  1  0.06276577  0.69101139  0.92038017  1
  H  H8  1  0.30904912  0.37172620  0.92041714  1
  H  H9  1  0.93718329  0.62826358  0.57963349  1
  H  H10  1  0.69101139  0.06276577  0.57961983  1
  H  H11  1  0.37172620  0.30904912  0.57958286  1
  H  H12  1  0.33338265  0.66655299  0.18528694  1
  H  H13  1  0.66655299  0.33338265  0.31471306  1
  H  H14  1  0.66661735  0.33344701  0.81471306  1
  H  H15  1  0.33344701  0.66661735  0.68528694  1
  H  H16  1  0.00011837  0.00011837  0.25000000  1
  H  H17  1  0.99988163  0.99988163  0.75000000  1
  He  He18  1  0.65644481  0.99996932  0.25001519  1
  He  He19  1  0.99996932  0.65644481  0.24998481  1
  He  He20  1  0.34355968  0.34355968  0.25000000  1
  He  He21  1  0.34355519  0.00003068  0.74998481  1
  He  He22  1  0.00003068  0.34355519  0.75001519  1
  He  He23  1  0.65644032  0.65644032  0.75000000  1
