# generated using pymatgen
data_HHeLi2
_symmetry_space_group_name_H-M   'P 1'
_cell_length_a   7.40605717
_cell_length_b   7.40605717
_cell_length_c   7.40605717
_cell_angle_alpha   31.53589544
_cell_angle_beta   31.53589544
_cell_angle_gamma   31.53589544
_symmetry_Int_Tables_number   1
_chemical_formula_structural   HHeLi2
_chemical_formula_sum   'H1 He1 Li2'
_cell_volume   98.66384094
_cell_formula_units_Z   1
loop_
 _symmetry_equiv_pos_site_id
 _symmetry_equiv_pos_as_xyz
  1  'x, y, z'
loop_
 _atom_site_type_symbol
 _atom_site_label
 _atom_site_symmetry_multiplicity
 _atom_site_fract_x
 _atom_site_fract_y
 _atom_site_fract_z
 _atom_site_occupancy
  H  H0  1  -0.00000000  -0.00000000  -0.00000000  1
  He  He1  1  0.50000000  0.50000000  0.50000000  1
  Li  Li2  1  0.25996148  0.25996148  0.25996148  1
  Li  Li3  1  0.74003852  0.74003852  0.74003852  1
