# generated using pymatgen
data_H2HeLi3
_symmetry_space_group_name_H-M   'P 1'
_cell_length_a   6.29224075
_cell_length_b   6.29224075
_cell_length_c   7.61913031
_cell_angle_alpha   83.58426950
_cell_angle_beta   83.58426950
_cell_angle_gamma   96.70610403
_symmetry_Int_Tables_number   1
_chemical_formula_structural   H2HeLi3
_chemical_formula_sum   'H4 He2 Li6'
_cell_volume   295.32918532
_cell_formula_units_Z   2
loop_
 _symmetry_equiv_pos_site_id
 _symmetry_equiv_pos_as_xyz
  1  'x, y, z'
loop_
 _atom_site_type_symbol
 _atom_site_label
 _atom_site_symmetry_multiplicity
 _atom_site_fract_x
 _atom_site_fract_y
 _atom_site_fract_z
 _atom_site_occupancy
  H  H0  1  0.14209788  0.85506609  0.01071018  1
  H  H1  1  0.85506609  0.14209788  0.51071018  1
  H  H2  1  0.64110839  0.35236849  0.07096174  1
  H  H3  1  0.35236849  0.64110839  0.57096174  1
  He  He4  1  0.12733081  0.36618555  0.04531116  1
  He  He5  1  0.36618555  0.12733081  0.54531116  1
  Li  Li6  1  0.90328065  0.81187269  0.33053511  1
  Li  Li7  1  0.81187269  0.90328065  0.83053511  1
  Li  Li8  1  0.55339132  0.94037349  0.04266522  1
  Li  Li9  1  0.94037349  0.55339132  0.54266522  1
  Li  Li10  1  0.68113297  0.59179166  0.75381660  1
  Li  Li11  1  0.59179166  0.68113297  0.25381660  1
