# generated using pymatgen
data_HHeLi
_symmetry_space_group_name_H-M   'P 1'
_cell_length_a   7.13833759
_cell_length_b   7.13833759
_cell_length_c   7.08648049
_cell_angle_alpha   90.00000000
_cell_angle_beta   90.00000000
_cell_angle_gamma   119.99931624
_symmetry_Int_Tables_number   1
_chemical_formula_structural   HHeLi
_chemical_formula_sum   'H6 He6 Li6'
_cell_volume   312.72196444
_cell_formula_units_Z   6
loop_
 _symmetry_equiv_pos_site_id
 _symmetry_equiv_pos_as_xyz
  1  'x, y, z'
loop_
 _atom_site_type_symbol
 _atom_site_label
 _atom_site_symmetry_multiplicity
 _atom_site_fract_x
 _atom_site_fract_y
 _atom_site_fract_z
 _atom_site_occupancy
  H  H0  1  0.26537992  0.99999433  0.99998854  1
  H  H1  1  0.99999433  0.26537992  0.00001146  1
  H  H2  1  0.73462891  0.73462891  0.00000000  1
  H  H3  1  0.26537992  0.99999433  0.50001146  1
  H  H4  1  0.99999433  0.26537992  0.49998854  1
  H  H5  1  0.73462891  0.73462891  0.50000000  1
  He  He6  1  0.39664445  0.39624045  0.25000000  1
  He  He7  1  0.60374684  0.00040619  0.25000000  1
  He  He8  1  0.99960007  0.60333368  0.25000000  1
  He  He9  1  0.39624045  0.39664445  0.75000000  1
  He  He10  1  0.00040619  0.60374684  0.75000000  1
  He  He11  1  0.60333368  0.99960007  0.75000000  1
  Li  Li12  1  0.33334084  0.66667255  0.00055949  1
  Li  Li13  1  0.33334084  0.66667255  0.49944051  1
  Li  Li14  1  0.66667255  0.33334084  0.99944051  1
  Li  Li15  1  0.66667255  0.33334084  0.50055949  1
  Li  Li16  1  0.00000623  0.99998898  0.25000000  1
  Li  Li17  1  0.99998898  0.00000623  0.75000000  1
