# generated using pymatgen
data_H4He2Li2Be
_symmetry_space_group_name_H-M   'P 1'
_cell_length_a   5.86511040
_cell_length_b   9.24907296
_cell_length_c   10.65991282
_cell_angle_alpha   90.00000000
_cell_angle_beta   90.00000000
_cell_angle_gamma   90.00000000
_symmetry_Int_Tables_number   1
_chemical_formula_structural   H4He2Li2Be
_chemical_formula_sum   'H16 He8 Li8 Be4'
_cell_volume   578.26652047
_cell_formula_units_Z   4
loop_
 _symmetry_equiv_pos_site_id
 _symmetry_equiv_pos_as_xyz
  1  'x, y, z'
loop_
 _atom_site_type_symbol
 _atom_site_label
 _atom_site_symmetry_multiplicity
 _atom_site_fract_x
 _atom_site_fract_y
 _atom_site_fract_z
 _atom_site_occupancy
  H  H0  1  0.57829266  0.46115371  0.86044537  1
  H  H1  1  0.42170734  0.96115371  0.13955463  1
  H  H2  1  0.92170734  0.46115371  0.36044537  1
  H  H3  1  0.07829266  0.96115371  0.63955463  1
  H  H4  1  0.80325675  0.22568651  0.55551154  1
  H  H5  1  0.19674325  0.72568651  0.44448846  1
  H  H6  1  0.69674325  0.22568651  0.05551154  1
  H  H7  1  0.30325675  0.72568651  0.94448846  1
  H  H8  1  0.40414066  0.43625714  0.60232318  1
  H  H9  1  0.59585934  0.93625714  0.39767682  1
  H  H10  1  0.09585934  0.43625714  0.10232318  1
  H  H11  1  0.90414066  0.93625714  0.89767682  1
  H  H12  1  0.97823766  0.28335223  0.80543764  1
  H  H13  1  0.02176234  0.78335223  0.19456236  1
  H  H14  1  0.52176234  0.28335223  0.30543764  1
  H  H15  1  0.47823766  0.78335223  0.69456236  1
  He  He16  1  0.75586621  0.41642927  0.68059352  1
  He  He17  1  0.24413379  0.91642927  0.31940648  1
  He  He18  1  0.74413379  0.41642927  0.18059352  1
  He  He19  1  0.25586621  0.91642927  0.81940648  1
  He  He20  1  0.08404380  0.52389548  0.53554739  1
  He  He21  1  0.91595620  0.02389548  0.46445261  1
  He  He22  1  0.41595620  0.52389548  0.03554739  1
  He  He23  1  0.58404380  0.02389548  0.96445261  1
  Li  Li24  1  0.73307105  0.66801780  0.58274272  1
  Li  Li25  1  0.26692895  0.16801780  0.41725728  1
  Li  Li26  1  0.76692895  0.66801780  0.08274272  1
  Li  Li27  1  0.23307105  0.16801780  0.91725728  1
  Li  Li28  1  0.00628501  0.62258678  0.75525361  1
  Li  Li29  1  0.99371499  0.12258678  0.24474639  1
  Li  Li30  1  0.49371499  0.62258678  0.25525361  1
  Li  Li31  1  0.50628501  0.12258678  0.74474639  1
  Be  Be32  1  0.90145277  0.56162107  0.64035535  1
  Be  Be33  1  0.09854723  0.06162107  0.35964465  1
  Be  Be34  1  0.59854723  0.56162107  0.14035535  1
  Be  Be35  1  0.40145277  0.06162107  0.85964465  1
