# generated using pymatgen
data_H4He3
_symmetry_space_group_name_H-M   'P 1'
_cell_length_a   6.78241847
_cell_length_b   8.75421535
_cell_length_c   9.28742838
_cell_angle_alpha   90.00000000
_cell_angle_beta   90.00000000
_cell_angle_gamma   90.00000000
_symmetry_Int_Tables_number   1
_chemical_formula_structural   H4He3
_chemical_formula_sum   'H16 He12'
_cell_volume   551.43875600
_cell_formula_units_Z   4
loop_
 _symmetry_equiv_pos_site_id
 _symmetry_equiv_pos_as_xyz
  1  'x, y, z'
loop_
 _atom_site_type_symbol
 _atom_site_label
 _atom_site_symmetry_multiplicity
 _atom_site_fract_x
 _atom_site_fract_y
 _atom_site_fract_z
 _atom_site_occupancy
  H  H0  1  0.25076779  0.82911107  0.67110568  1
  H  H1  1  0.25076779  0.17088893  0.32889432  1
  H  H2  1  0.74923221  0.32911107  0.82889432  1
  H  H3  1  0.74923221  0.67088893  0.17110568  1
  H  H4  1  0.74923221  0.17088893  0.32889432  1
  H  H5  1  0.74923221  0.82911107  0.67110568  1
  H  H6  1  0.25076779  0.67088893  0.17110568  1
  H  H7  1  0.25076779  0.32911107  0.82889432  1
  H  H8  1  0.00000000  0.40172501  0.12877042  1
  H  H9  1  0.00000000  0.59827499  0.87122958  1
  H  H10  1  0.00000000  0.90172501  0.37122958  1
  H  H11  1  0.00000000  0.09827499  0.62877042  1
  H  H12  1  0.50000000  0.36140519  0.09151538  1
  H  H13  1  0.50000000  0.63859481  0.90848462  1
  H  H14  1  0.50000000  0.86140519  0.40848462  1
  H  H15  1  0.50000000  0.13859481  0.59151538  1
  He  He16  1  0.25053896  0.50000000  -0.00000000  1
  He  He17  1  0.74946104  0.00000000  0.50000000  1
  He  He18  1  0.74946104  0.50000000  0.00000000  1
  He  He19  1  0.25053896  -0.00000000  0.50000000  1
  He  He20  1  0.50000000  0.84031116  0.15533687  1
  He  He21  1  0.50000000  0.15968884  0.84466313  1
  He  He22  1  0.50000000  0.34031116  0.34466313  1
  He  He23  1  0.50000000  0.65968884  0.65533687  1
  He  He24  1  0.00000000  0.13412362  0.17338711  1
  He  He25  1  0.00000000  0.86587638  0.82661289  1
  He  He26  1  0.00000000  0.63412362  0.32661289  1
  He  He27  1  0.00000000  0.36587638  0.67338711  1
