# generated using pymatgen
data_HHe11Li6
_symmetry_space_group_name_H-M   'P 1'
_cell_length_a   5.86931942
_cell_length_b   5.87054709
_cell_length_c   13.56962786
_cell_angle_alpha   90.00000000
_cell_angle_beta   90.00000000
_cell_angle_gamma   119.99308253
_symmetry_Int_Tables_number   1
_chemical_formula_structural   HHe11Li6
_chemical_formula_sum   'H2 He22 Li12'
_cell_volume   404.94417753
_cell_formula_units_Z   2
loop_
 _symmetry_equiv_pos_site_id
 _symmetry_equiv_pos_as_xyz
  1  'x, y, z'
loop_
 _atom_site_type_symbol
 _atom_site_label
 _atom_site_symmetry_multiplicity
 _atom_site_fract_x
 _atom_site_fract_y
 _atom_site_fract_z
 _atom_site_occupancy
  H  H0  1  0.66662314  0.33324628  0.25000000  1
  H  H1  1  0.33337686  0.66675372  0.75000000  1
  He  He2  1  0.34574426  0.17295135  0.07450041  1
  He  He3  1  0.82720709  0.17295135  0.07450041  1
  He  He4  1  0.82711909  0.65423818  0.07456260  1
  He  He5  1  0.65425574  0.82704865  0.57450041  1
  He  He6  1  0.17279291  0.82704865  0.57450041  1
  He  He7  1  0.17288091  0.34576182  0.57456260  1
  He  He8  1  0.17279291  0.82704865  0.92549959  1
  He  He9  1  0.65425574  0.82704865  0.92549959  1
  He  He10  1  0.17288091  0.34576182  0.92543740  1
  He  He11  1  0.82720709  0.17295135  0.42549959  1
  He  He12  1  0.34574426  0.17295135  0.42549959  1
  He  He13  1  0.82711909  0.65423818  0.42543740  1
  He  He14  1  0.29549176  0.14771848  0.75000000  1
  He  He15  1  0.85222672  0.14771848  0.75000000  1
  He  He16  1  0.85225486  0.70450973  0.75000000  1
  He  He17  1  0.70450824  0.85228152  0.25000000  1
  He  He18  1  0.14777328  0.85228152  0.25000000  1
  He  He19  1  0.14774514  0.29549027  0.25000000  1
  He  He20  1  0.66668631  0.33337261  0.58344221  1
  He  He21  1  0.33331369  0.66662739  0.08344221  1
  He  He22  1  0.33331369  0.66662739  0.41655779  1
  He  He23  1  0.66668631  0.33337261  0.91655779  1
  Li  Li24  1  -0.00000000  0.50000000  -0.00000000  1
  Li  Li25  1  0.50000000  0.50000000  0.00000000  1
  Li  Li26  1  0.50000000  0.00000000  0.00000000  1
  Li  Li27  1  0.00000000  0.50000000  0.50000000  1
  Li  Li28  1  0.50000000  0.50000000  0.50000000  1
  Li  Li29  1  0.50000000  -0.00000000  0.50000000  1
  Li  Li30  1  0.00002720  0.00005441  0.14821543  1
  Li  Li31  1  -0.00002720  -0.00005441  0.64821543  1
  Li  Li32  1  -0.00002720  -0.00005441  0.85178457  1
  Li  Li33  1  0.00002720  0.00005441  0.35178457  1
  Li  Li34  1  0.66694533  0.33389066  0.75000000  1
  Li  Li35  1  0.33305467  0.66610934  0.25000000  1
