# generated using pymatgen
data_H4He
_symmetry_space_group_name_H-M   'P 1'
_cell_length_a   7.32802555
_cell_length_b   7.32802555
_cell_length_c   7.32802555
_cell_angle_alpha   106.62471078
_cell_angle_beta   106.62471078
_cell_angle_gamma   115.32781418
_symmetry_Int_Tables_number   1
_chemical_formula_structural   H4He
_chemical_formula_sum   'H8 He2'
_cell_volume   300.52975701
_cell_formula_units_Z   2
loop_
 _symmetry_equiv_pos_site_id
 _symmetry_equiv_pos_as_xyz
  1  'x, y, z'
loop_
 _atom_site_type_symbol
 _atom_site_label
 _atom_site_symmetry_multiplicity
 _atom_site_fract_x
 _atom_site_fract_y
 _atom_site_fract_z
 _atom_site_occupancy
  H  H0  1  0.23999022  0.80621627  0.43377395  1
  H  H1  1  0.87244232  0.80621627  0.06622605  1
  H  H2  1  0.30621627  0.37244232  0.56622605  1
  H  H3  1  0.30621627  0.73999022  0.93377395  1
  H  H4  1  0.12755768  0.19378373  0.93377395  1
  H  H5  1  0.76000978  0.19378373  0.56622605  1
  H  H6  1  0.69378373  0.62755768  0.43377395  1
  H  H7  1  0.69378373  0.26000978  0.06622605  1
  He  He8  1  0.62500000  0.87500000  0.75000000  1
  He  He9  1  0.37500000  0.12500000  0.25000000  1
