# generated using pymatgen
data_H3He14Li5
_symmetry_space_group_name_H-M   'P 1'
_cell_length_a   7.11039462
_cell_length_b   7.11039462
_cell_length_c   10.57771222
_cell_angle_alpha   90.00000000
_cell_angle_beta   90.00000000
_cell_angle_gamma   90.00000000
_symmetry_Int_Tables_number   1
_chemical_formula_structural   H3He14Li5
_chemical_formula_sum   'H6 He28 Li10'
_cell_volume   534.78492436
_cell_formula_units_Z   2
loop_
 _symmetry_equiv_pos_site_id
 _symmetry_equiv_pos_as_xyz
  1  'x, y, z'
loop_
 _atom_site_type_symbol
 _atom_site_label
 _atom_site_symmetry_multiplicity
 _atom_site_fract_x
 _atom_site_fract_y
 _atom_site_fract_z
 _atom_site_occupancy
  H  H0  1  0.00000000  0.00000000  0.00000000  1
  H  H1  1  0.50000000  0.50000000  0.50000000  1
  H  H2  1  0.00000000  0.50000000  0.00000000  1
  H  H3  1  0.50000000  0.00000000  0.00000000  1
  H  H4  1  0.50000000  0.00000000  0.50000000  1
  H  H5  1  0.00000000  0.50000000  0.50000000  1
  He  He6  1  -0.00000000  0.00000000  0.17131184  1
  He  He7  1  0.50000000  0.50000000  0.32868816  1
  He  He8  1  0.00000000  -0.00000000  0.82868816  1
  He  He9  1  0.50000000  0.50000000  0.67131184  1
  He  He10  1  0.06439877  0.24786810  -0.00000000  1
  He  He11  1  0.93560123  0.75213190  0.00000000  1
  He  He12  1  0.75213190  0.06439877  0.00000000  1
  He  He13  1  0.24786810  0.93560123  -0.00000000  1
  He  He14  1  0.43560123  0.74786810  0.50000000  1
  He  He15  1  0.56439877  0.25213190  0.50000000  1
  He  He16  1  0.74786810  0.56439877  0.50000000  1
  He  He17  1  0.25213190  0.43560123  0.50000000  1
  He  He18  1  0.17998320  0.53526485  0.11999224  1
  He  He19  1  0.82001680  0.46473515  0.11999224  1
  He  He20  1  0.46473515  0.17998320  0.11999224  1
  He  He21  1  0.53526485  0.82001680  0.11999224  1
  He  He22  1  0.32001680  0.03526485  0.38000776  1
  He  He23  1  0.67998320  0.96473515  0.38000776  1
  He  He24  1  0.03526485  0.67998320  0.38000776  1
  He  He25  1  0.96473515  0.32001680  0.38000776  1
  He  He26  1  0.82001680  0.46473515  0.88000776  1
  He  He27  1  0.17998320  0.53526485  0.88000776  1
  He  He28  1  0.53526485  0.82001680  0.88000776  1
  He  He29  1  0.46473515  0.17998320  0.88000776  1
  He  He30  1  0.67998320  0.96473515  0.61999224  1
  He  He31  1  0.32001680  0.03526485  0.61999224  1
  He  He32  1  0.96473515  0.32001680  0.61999224  1
  He  He33  1  0.03526485  0.67998320  0.61999224  1
  Li  Li34  1  0.00000000  0.00000000  0.50000000  1
  Li  Li35  1  0.50000000  0.50000000  0.00000000  1
  Li  Li36  1  0.27528289  0.77528289  0.25000000  1
  Li  Li37  1  0.72471711  0.22471711  0.25000000  1
  Li  Li38  1  0.22471711  0.27528289  0.25000000  1
  Li  Li39  1  0.77528289  0.72471711  0.25000000  1
  Li  Li40  1  0.72471711  0.22471711  0.75000000  1
  Li  Li41  1  0.27528289  0.77528289  0.75000000  1
  Li  Li42  1  0.77528289  0.72471711  0.75000000  1
  Li  Li43  1  0.22471711  0.27528289  0.75000000  1
