# generated using pymatgen
data_H8He2Li3
_symmetry_space_group_name_H-M   'P 1'
_cell_length_a   8.82374865
_cell_length_b   8.35455570
_cell_length_c   8.98877485
_cell_angle_alpha   70.72044521
_cell_angle_beta   90.00000000
_cell_angle_gamma   90.00000000
_symmetry_Int_Tables_number   1
_chemical_formula_structural   H8He2Li3
_chemical_formula_sum   'H32 He8 Li12'
_cell_volume   625.47742535
_cell_formula_units_Z   4
loop_
 _symmetry_equiv_pos_site_id
 _symmetry_equiv_pos_as_xyz
  1  'x, y, z'
loop_
 _atom_site_type_symbol
 _atom_site_label
 _atom_site_symmetry_multiplicity
 _atom_site_fract_x
 _atom_site_fract_y
 _atom_site_fract_z
 _atom_site_occupancy
  H  H0  1  0.53850143  0.14890112  0.39993319  1
  H  H1  1  0.03850143  0.85109888  0.10006681  1
  H  H2  1  0.46149857  0.85109888  0.60006681  1
  H  H3  1  0.96149857  0.14890112  0.89993319  1
  H  H4  1  0.93355711  0.55294761  0.15247727  1
  H  H5  1  0.43355711  0.44705239  0.34752273  1
  H  H6  1  0.06644289  0.44705239  0.84752273  1
  H  H7  1  0.56644289  0.55294761  0.65247727  1
  H  H8  1  0.61153944  0.38449028  0.15046595  1
  H  H9  1  0.11153944  0.61550972  0.34953405  1
  H  H10  1  0.38846056  0.61550972  0.84953405  1
  H  H11  1  0.88846056  0.38449028  0.65046595  1
  H  H12  1  0.71031366  0.38067666  0.41818504  1
  H  H13  1  0.21031366  0.61932334  0.08181496  1
  H  H14  1  0.28968634  0.61932334  0.58181496  1
  H  H15  1  0.78968634  0.38067666  0.91818504  1
  H  H16  1  0.59219220  0.73767106  0.07400592  1
  H  H17  1  0.09219220  0.26232894  0.42599408  1
  H  H18  1  0.40780780  0.26232894  0.92599408  1
  H  H19  1  0.90780780  0.73767106  0.57400592  1
  H  H20  1  0.77848278  0.75420308  0.82287969  1
  H  H21  1  0.27848278  0.24579692  0.67712031  1
  H  H22  1  0.22151722  0.24579692  0.17712031  1
  H  H23  1  0.72151722  0.75420308  0.32287969  1
  H  H24  1  0.55110152  0.13024152  0.75975687  1
  H  H25  1  0.05110152  0.86975848  0.74024313  1
  H  H26  1  0.44889848  0.86975848  0.24024313  1
  H  H27  1  0.94889848  0.13024152  0.25975687  1
  H  H28  1  0.81642815  0.01895457  0.59930166  1
  H  H29  1  0.31642815  0.98104543  0.90069834  1
  H  H30  1  0.18357185  0.98104543  0.40069834  1
  H  H31  1  0.68357185  0.01895457  0.09930166  1
  He  He32  1  0.56983621  0.34489466  0.32836419  1
  He  He33  1  0.06983621  0.65510534  0.17163581  1
  He  He34  1  0.43016379  0.65510534  0.67163581  1
  He  He35  1  0.93016379  0.34489466  0.82836419  1
  He  He36  1  0.88990427  0.83960090  0.69136952  1
  He  He37  1  0.38990427  0.16039910  0.80863048  1
  He  He38  1  0.11009573  0.16039910  0.30863048  1
  He  He39  1  0.61009573  0.83960090  0.19136952  1
  Li  Li40  1  0.60199819  0.01724575  0.62084136  1
  Li  Li41  1  0.10199819  0.98275425  0.87915864  1
  Li  Li42  1  0.39800181  0.98275425  0.37915864  1
  Li  Li43  1  0.89800181  0.01724575  0.12084136  1
  Li  Li44  1  0.89004219  0.25071171  0.50659125  1
  Li  Li45  1  0.39004219  0.74928829  0.99340875  1
  Li  Li46  1  0.10995781  0.74928829  0.49340875  1
  Li  Li47  1  0.60995781  0.25071171  0.00659125  1
  Li  Li48  1  0.75875606  0.57438203  0.02326631  1
  Li  Li49  1  0.25875606  0.42561797  0.47673369  1
  Li  Li50  1  0.24124394  0.42561797  0.97673369  1
  Li  Li51  1  0.74124394  0.57438203  0.52326631  1
