# generated using pymatgen
data_H3He5
_symmetry_space_group_name_H-M   'P 1'
_cell_length_a   3.96867798
_cell_length_b   5.49950176
_cell_length_c   10.54646623
_cell_angle_alpha   90.00000000
_cell_angle_beta   90.00000000
_cell_angle_gamma   90.00000000
_symmetry_Int_Tables_number   1
_chemical_formula_structural   H3He5
_chemical_formula_sum   'H6 He10'
_cell_volume   230.18455158
_cell_formula_units_Z   2
loop_
 _symmetry_equiv_pos_site_id
 _symmetry_equiv_pos_as_xyz
  1  'x, y, z'
loop_
 _atom_site_type_symbol
 _atom_site_label
 _atom_site_symmetry_multiplicity
 _atom_site_fract_x
 _atom_site_fract_y
 _atom_site_fract_z
 _atom_site_occupancy
  H  H0  1  0.00000000  -0.00000000  0.00000000  1
  H  H1  1  0.00000000  0.50000000  0.50000000  1
  H  H2  1  0.50000000  0.39813396  0.84602117  1
  H  H3  1  0.50000000  0.60186604  0.15397883  1
  H  H4  1  0.50000000  0.10186604  0.34602117  1
  H  H5  1  0.50000000  0.89813396  0.65397883  1
  He  He6  1  0.00000000  0.00000000  0.50000000  1
  He  He7  1  0.00000000  0.50000000  -0.00000000  1
  He  He8  1  0.00000000  0.14913405  0.78335854  1
  He  He9  1  0.00000000  0.85086595  0.21664146  1
  He  He10  1  0.00000000  0.35086595  0.28335854  1
  He  He11  1  0.00000000  0.64913405  0.71664146  1
  He  He12  1  0.50000000  0.33155065  0.60774425  1
  He  He13  1  0.50000000  0.66844935  0.39225575  1
  He  He14  1  0.50000000  0.16844935  0.10774425  1
  He  He15  1  0.50000000  0.83155065  0.89225575  1
