# generated using pymatgen
data_H5He3
_symmetry_space_group_name_H-M   'P 1'
_cell_length_a   9.48716284
_cell_length_b   9.48716284
_cell_length_c   9.48716284
_cell_angle_alpha   130.76414947
_cell_angle_beta   130.76414947
_cell_angle_gamma   72.18806487
_symmetry_Int_Tables_number   1
_chemical_formula_structural   H5He3
_chemical_formula_sum   'H10 He6'
_cell_volume   478.93215582
_cell_formula_units_Z   2
loop_
 _symmetry_equiv_pos_site_id
 _symmetry_equiv_pos_as_xyz
  1  'x, y, z'
loop_
 _atom_site_type_symbol
 _atom_site_label
 _atom_site_symmetry_multiplicity
 _atom_site_fract_x
 _atom_site_fract_y
 _atom_site_fract_z
 _atom_site_occupancy
  H  H0  1  0.00000000  0.00000000  0.00000000  1
  H  H1  1  0.50000000  0.50000000  -0.00000000  1
  H  H2  1  0.31723624  0.47733512  0.50000000  1
  H  H3  1  0.97733512  0.81723624  0.50000000  1
  H  H4  1  0.47733512  0.97733512  0.16009888  1
  H  H5  1  0.81723624  0.31723624  0.83990112  1
  H  H6  1  0.18276376  0.68276376  0.16009888  1
  H  H7  1  0.52266488  0.02266488  0.83990112  1
  H  H8  1  0.02266488  0.18276376  0.50000000  1
  H  H9  1  0.68276376  0.52266488  0.50000000  1
  He  He10  1  0.25000000  0.25000000  -0.00000000  1
  He  He11  1  0.75000000  0.75000000  -0.00000000  1
  He  He12  1  0.38300729  0.11699271  0.50000000  1
  He  He13  1  0.61699271  0.88300729  0.50000000  1
  He  He14  1  0.11699271  0.61699271  0.73398541  1
  He  He15  1  0.88300729  0.38300729  0.26601459  1
