# generated using pymatgen
data_H6HeLi2Be
_symmetry_space_group_name_H-M   'P 1'
_cell_length_a   6.16101324
_cell_length_b   6.16101324
_cell_length_c   6.16101324
_cell_angle_alpha   60.00000000
_cell_angle_beta   60.00000000
_cell_angle_gamma   60.00000000
_symmetry_Int_Tables_number   1
_chemical_formula_structural   H6HeLi2Be
_chemical_formula_sum   'H6 He1 Li2 Be1'
_cell_volume   165.36417505
_cell_formula_units_Z   1
loop_
 _symmetry_equiv_pos_site_id
 _symmetry_equiv_pos_as_xyz
  1  'x, y, z'
loop_
 _atom_site_type_symbol
 _atom_site_label
 _atom_site_symmetry_multiplicity
 _atom_site_fract_x
 _atom_site_fract_y
 _atom_site_fract_z
 _atom_site_occupancy
  H  H0  1  0.23215152  0.23215152  0.76784848  1
  H  H1  1  0.76784848  0.76784848  0.23215152  1
  H  H2  1  0.23215152  0.76784848  0.23215152  1
  H  H3  1  0.76784848  0.23215152  0.76784848  1
  H  H4  1  0.23215152  0.76784848  0.76784848  1
  H  H5  1  0.76784848  0.23215152  0.23215152  1
  He  He6  1  0.50000000  0.50000000  0.50000000  1
  Li  Li7  1  0.75000000  0.75000000  0.75000000  1
  Li  Li8  1  0.25000000  0.25000000  0.25000000  1
  Be  Be9  1  0.00000000  0.00000000  0.00000000  1
