# generated using pymatgen
data_H3He2
_symmetry_space_group_name_H-M   'P 1'
_cell_length_a   10.78143721
_cell_length_b   10.78143721
_cell_length_c   10.78143721
_cell_angle_alpha   109.47122063
_cell_angle_beta   109.47122063
_cell_angle_gamma   109.47122063
_symmetry_Int_Tables_number   1
_chemical_formula_structural   H3He2
_chemical_formula_sum   'H24 He16'
_cell_volume   964.73510709
_cell_formula_units_Z   8
loop_
 _symmetry_equiv_pos_site_id
 _symmetry_equiv_pos_as_xyz
  1  'x, y, z'
loop_
 _atom_site_type_symbol
 _atom_site_label
 _atom_site_symmetry_multiplicity
 _atom_site_fract_x
 _atom_site_fract_y
 _atom_site_fract_z
 _atom_site_occupancy
  H  H0  1  0.97540261  0.22480353  0.95651967  1
  H  H1  1  0.52459739  0.48111705  0.24940091  1
  H  H2  1  0.76828386  0.01888295  0.54348033  1
  H  H3  1  0.73171614  0.27519647  0.25059909  1
  H  H4  1  0.24940091  0.02459739  0.98111705  1
  H  H5  1  0.95651967  0.47540261  0.72480353  1
  H  H6  1  0.25059909  0.23171614  0.77519647  1
  H  H7  1  0.54348033  0.26828386  0.51888295  1
  H  H8  1  0.77519647  0.75059909  0.73171614  1
  H  H9  1  0.51888295  0.04348033  0.76828386  1
  H  H10  1  0.98111705  0.74940091  0.52459739  1
  H  H11  1  0.72480353  0.45651967  0.97540261  1
  H  H12  1  0.02459739  0.77519647  0.04348033  1
  H  H13  1  0.47540261  0.51888295  0.75059909  1
  H  H14  1  0.23171614  0.98111705  0.45651967  1
  H  H15  1  0.26828386  0.72480353  0.74940091  1
  H  H16  1  0.75059909  0.97540261  0.01888295  1
  H  H17  1  0.04348033  0.52459739  0.27519647  1
  H  H18  1  0.74940091  0.76828386  0.22480353  1
  H  H19  1  0.45651967  0.73171614  0.48111705  1
  H  H20  1  0.22480353  0.24940091  0.26828386  1
  H  H21  1  0.48111705  0.95651967  0.23171614  1
  H  H22  1  0.01888295  0.25059909  0.47540261  1
  H  H23  1  0.27519647  0.54348033  0.02459739  1
  He  He24  1  0.00000000  -0.00000000  -0.00000000  1
  He  He25  1  0.50000000  0.50000000  0.00000000  1
  He  He26  1  0.50000000  0.00000000  0.50000000  1
  He  He27  1  -0.00000000  0.50000000  0.50000000  1
  He  He28  1  0.73281739  0.75000000  0.48281739  1
  He  He29  1  0.76718261  0.25000000  0.01718261  1
  He  He30  1  0.01718261  0.26718261  0.75000000  1
  He  He31  1  0.48281739  0.23281739  0.25000000  1
  He  He32  1  0.25000000  0.98281739  0.73281739  1
  He  He33  1  0.75000000  0.51718261  0.76718261  1
  He  He34  1  0.26718261  0.25000000  0.51718261  1
  He  He35  1  0.23281739  0.75000000  0.98281739  1
  He  He36  1  0.98281739  0.73281739  0.25000000  1
  He  He37  1  0.51718261  0.76718261  0.75000000  1
  He  He38  1  0.75000000  0.01718261  0.26718261  1
  He  He39  1  0.25000000  0.48281739  0.23281739  1
