# generated using pymatgen
data_HHeLi2
_symmetry_space_group_name_H-M   'P 1'
_cell_length_a   4.18489236
_cell_length_b   4.18485845
_cell_length_c   20.10509511
_cell_angle_alpha   90.00032309
_cell_angle_beta   90.00000000
_cell_angle_gamma   120.00026805
_symmetry_Int_Tables_number   1
_chemical_formula_structural   HHeLi2
_chemical_formula_sum   'H3 He3 Li6'
_cell_volume   304.93035160
_cell_formula_units_Z   3
loop_
 _symmetry_equiv_pos_site_id
 _symmetry_equiv_pos_as_xyz
  1  'x, y, z'
loop_
 _atom_site_type_symbol
 _atom_site_label
 _atom_site_symmetry_multiplicity
 _atom_site_fract_x
 _atom_site_fract_y
 _atom_site_fract_z
 _atom_site_occupancy
  H  H0  1  0.00000000  0.00000000  -0.00000000  1
  H  H1  1  0.66666741  0.33333481  0.66752810  1
  H  H2  1  0.33333259  0.66666519  0.33247190  1
  He  He3  1  -0.00000000  -0.00000000  0.50000000  1
  He  He4  1  0.66666463  0.33332926  0.16586660  1
  He  He5  1  0.33333537  0.66667074  0.83413340  1
  Li  Li6  1  0.99999291  0.99998581  0.25186870  1
  Li  Li7  1  0.00000709  0.00001419  0.74813130  1
  Li  Li8  1  0.66667289  0.33334579  0.92005431  1
  Li  Li9  1  0.33332711  0.66665421  0.07994569  1
  Li  Li10  1  0.66666736  0.33333471  0.41367330  1
  Li  Li11  1  0.33333264  0.66666529  0.58632670  1
