# generated using pymatgen
data_H2He7Li2
_symmetry_space_group_name_H-M   'P 1'
_cell_length_a   10.99819555
_cell_length_b   10.99819555
_cell_length_c   10.54809940
_cell_angle_alpha   90.00000000
_cell_angle_beta   90.00000000
_cell_angle_gamma   90.00000000
_symmetry_Int_Tables_number   1
_chemical_formula_structural   H2He7Li2
_chemical_formula_sum   'H8 He28 Li8'
_cell_volume   1275.90132427
_cell_formula_units_Z   4
loop_
 _symmetry_equiv_pos_site_id
 _symmetry_equiv_pos_as_xyz
  1  'x, y, z'
loop_
 _atom_site_type_symbol
 _atom_site_label
 _atom_site_symmetry_multiplicity
 _atom_site_fract_x
 _atom_site_fract_y
 _atom_site_fract_z
 _atom_site_occupancy
  H  H0  1  0.64025737  0.01754188  0.65059333  1
  H  H1  1  0.85974263  0.48245812  0.65059333  1
  H  H2  1  0.48245812  0.64025737  0.65059333  1
  H  H3  1  0.01754188  0.85974263  0.65059333  1
  H  H4  1  0.35974263  0.98245812  0.34940667  1
  H  H5  1  0.14025737  0.51754188  0.34940667  1
  H  H6  1  0.51754188  0.35974263  0.34940667  1
  H  H7  1  0.98245812  0.14025737  0.34940667  1
  He  He8  1  0.60428293  0.15138679  0.85307663  1
  He  He9  1  0.89571707  0.34861321  0.85307663  1
  He  He10  1  0.34861321  0.60428293  0.85307663  1
  He  He11  1  0.15138679  0.89571707  0.85307663  1
  He  He12  1  0.39571707  0.84861321  0.14692337  1
  He  He13  1  0.10428293  0.65138679  0.14692337  1
  He  He14  1  0.65138679  0.39571707  0.14692337  1
  He  He15  1  0.84861321  0.10428293  0.14692337  1
  He  He16  1  0.48514571  0.87803546  0.77439248  1
  He  He17  1  0.01485429  0.62196454  0.77439248  1
  He  He18  1  0.62196454  0.48514571  0.77439248  1
  He  He19  1  0.87803546  0.01485429  0.77439248  1
  He  He20  1  0.51485429  0.12196454  0.22560752  1
  He  He21  1  0.98514571  0.37803546  0.22560752  1
  He  He22  1  0.37803546  0.51485429  0.22560752  1
  He  He23  1  0.12196454  0.98514571  0.22560752  1
  He  He24  1  0.44783171  0.13665400  0.56059442  1
  He  He25  1  0.05216829  0.36334600  0.56059442  1
  He  He26  1  0.36334600  0.44783171  0.56059442  1
  He  He27  1  0.13665400  0.05216829  0.56059442  1
  He  He28  1  0.55216829  0.86334600  0.43940558  1
  He  He29  1  0.94783171  0.63665400  0.43940558  1
  He  He30  1  0.63665400  0.55216829  0.43940558  1
  He  He31  1  0.86334600  0.94783171  0.43940558  1
  He  He32  1  0.75000000  0.25000000  0.50000000  1
  He  He33  1  0.25000000  0.75000000  0.50000000  1
  He  He34  1  0.75000000  0.75000000  0.66760519  1
  He  He35  1  0.25000000  0.25000000  0.33239481  1
  Li  Li36  1  0.67127160  0.87814536  0.11241742  1
  Li  Li37  1  0.82872840  0.62185464  0.11241742  1
  Li  Li38  1  0.62185464  0.67127160  0.11241742  1
  Li  Li39  1  0.87814536  0.82872840  0.11241742  1
  Li  Li40  1  0.32872840  0.12185464  0.88758258  1
  Li  Li41  1  0.17127160  0.37814536  0.88758258  1
  Li  Li42  1  0.37814536  0.32872840  0.88758258  1
  Li  Li43  1  0.12185464  0.17127160  0.88758258  1
