# generated using pymatgen
data_H3He
_symmetry_space_group_name_H-M   'P 1'
_cell_length_a   5.43916707
_cell_length_b   5.43916707
_cell_length_c   7.01181152
_cell_angle_alpha   90.00000000
_cell_angle_beta   90.00000000
_cell_angle_gamma   96.52396986
_symmetry_Int_Tables_number   1
_chemical_formula_structural   H3He
_chemical_formula_sum   'H6 He2'
_cell_volume   206.09790348
_cell_formula_units_Z   2
loop_
 _symmetry_equiv_pos_site_id
 _symmetry_equiv_pos_as_xyz
  1  'x, y, z'
loop_
 _atom_site_type_symbol
 _atom_site_label
 _atom_site_symmetry_multiplicity
 _atom_site_fract_x
 _atom_site_fract_y
 _atom_site_fract_z
 _atom_site_occupancy
  H  H0  1  0.46539402  0.46539402  0.00000000  1
  H  H1  1  0.96539402  0.96539402  0.50000000  1
  H  H2  1  0.47506104  0.80368536  0.14100562  1
  H  H3  1  0.80368536  0.47506104  0.85899438  1
  H  H4  1  0.30368536  0.97506104  0.64100562  1
  H  H5  1  0.97506104  0.30368536  0.35899438  1
  He  He6  1  0.99975958  0.99975958  0.00000000  1
  He  He7  1  0.49975958  0.49975958  0.50000000  1
