# generated using pymatgen
data_H5He(Li4Be)2
_symmetry_space_group_name_H-M   'P 1'
_cell_length_a   11.00622205
_cell_length_b   7.91213342
_cell_length_c   9.67042722
_cell_angle_alpha   65.25535788
_cell_angle_beta   90.00000000
_cell_angle_gamma   90.00000000
_symmetry_Int_Tables_number   1
_chemical_formula_structural   H5He(Li4Be)2
_chemical_formula_sum   'H20 He4 Li32 Be8'
_cell_volume   764.80474910
_cell_formula_units_Z   4
loop_
 _symmetry_equiv_pos_site_id
 _symmetry_equiv_pos_as_xyz
  1  'x, y, z'
loop_
 _atom_site_type_symbol
 _atom_site_label
 _atom_site_symmetry_multiplicity
 _atom_site_fract_x
 _atom_site_fract_y
 _atom_site_fract_z
 _atom_site_occupancy
  H  H0  1  0.79357664  0.13820396  0.82664152  1
  H  H1  1  0.29357664  0.36179604  0.67335848  1
  H  H2  1  0.20642336  0.86179604  0.17335848  1
  H  H3  1  0.70642336  0.63820396  0.32664152  1
  H  H4  1  0.74476688  0.58559895  0.98233588  1
  H  H5  1  0.24476688  0.91440105  0.51766412  1
  H  H6  1  0.25523312  0.41440105  0.01766412  1
  H  H7  1  0.75523312  0.08559895  0.48233588  1
  H  H8  1  0.91788107  0.73785579  0.69535198  1
  H  H9  1  0.41788107  0.76214421  0.80464802  1
  H  H10  1  0.08211893  0.26214421  0.30464802  1
  H  H11  1  0.58211893  0.23785579  0.19535198  1
  H  H12  1  0.58190874  0.07394507  0.63356082  1
  H  H13  1  0.08190874  0.42605493  0.86643918  1
  H  H14  1  0.41809126  0.92605493  0.36643918  1
  H  H15  1  0.91809126  0.57394507  0.13356082  1
  H  H16  1  0.02606032  0.32901141  0.54166394  1
  H  H17  1  0.52606032  0.17098859  0.95833606  1
  H  H18  1  0.97393968  0.67098859  0.45833606  1
  H  H19  1  0.47393968  0.82901141  0.04166394  1
  He  He20  1  0.62216211  0.57044867  0.64497662  1
  He  He21  1  0.12216211  0.92955133  0.85502338  1
  He  He22  1  0.37783789  0.42955133  0.35502338  1
  He  He23  1  0.87783789  0.07044867  0.14497662  1
  Li  Li24  1  0.78572728  0.96877468  0.88596170  1
  Li  Li25  1  0.28572728  0.53122532  0.61403830  1
  Li  Li26  1  0.21427272  0.03122532  0.11403830  1
  Li  Li27  1  0.71427272  0.46877468  0.38596170  1
  Li  Li28  1  0.71180066  0.66780570  0.87585334  1
  Li  Li29  1  0.21180066  0.83219430  0.62414666  1
  Li  Li30  1  0.28819934  0.33219430  0.12414666  1
  Li  Li31  1  0.78819934  0.16780570  0.37585334  1
  Li  Li32  1  0.91000119  0.82592148  0.74716375  1
  Li  Li33  1  0.41000119  0.67407852  0.75283625  1
  Li  Li34  1  0.08999881  0.17407852  0.25283625  1
  Li  Li35  1  0.58999881  0.32592148  0.24716375  1
  Li  Li36  1  0.70042240  0.95858157  0.63995995  1
  Li  Li37  1  0.20042240  0.54141843  0.86004005  1
  Li  Li38  1  0.29957760  0.04141843  0.36004005  1
  Li  Li39  1  0.79957760  0.45858157  0.13995995  1
  Li  Li40  1  0.00443966  0.34870702  0.87942223  1
  Li  Li41  1  0.50443966  0.15129298  0.62057777  1
  Li  Li42  1  0.99556034  0.65129298  0.12057777  1
  Li  Li43  1  0.49556034  0.84870702  0.37942223  1
  Li  Li44  1  0.00027825  0.26662310  0.65466908  1
  Li  Li45  1  0.50027825  0.23337690  0.84533092  1
  Li  Li46  1  0.99972175  0.73337690  0.34533092  1
  Li  Li47  1  0.49972175  0.76662310  0.15466908  1
  Li  Li48  1  0.80534175  0.30181744  0.78154275  1
  Li  Li49  1  0.30534175  0.19818256  0.71845725  1
  Li  Li50  1  0.19465825  0.69818256  0.21845725  1
  Li  Li51  1  0.69465825  0.80181744  0.28154275  1
  Li  Li52  1  0.92732370  0.59099876  0.62108701  1
  Li  Li53  1  0.42732370  0.90900124  0.87891299  1
  Li  Li54  1  0.07267630  0.40900124  0.37891299  1
  Li  Li55  1  0.57267630  0.09099876  0.12108701  1
  Be  Be56  1  0.77506028  0.86243125  0.78562672  1
  Be  Be57  1  0.27506028  0.63756875  0.71437328  1
  Be  Be58  1  0.22493972  0.13756875  0.21437328  1
  Be  Be59  1  0.72493972  0.36243125  0.28562672  1
  Be  Be60  1  0.93256390  0.38458992  0.72785634  1
  Be  Be61  1  0.43256390  0.11541008  0.77214366  1
  Be  Be62  1  0.06743610  0.61541008  0.27214366  1
  Be  Be63  1  0.56743610  0.88458992  0.22785634  1
