# generated using pymatgen
data_HHe2Li4
_symmetry_space_group_name_H-M   'P 1'
_cell_length_a   4.58010084
_cell_length_b   7.31402699
_cell_length_c   19.03862007
_cell_angle_alpha   90.00000000
_cell_angle_beta   90.00000000
_cell_angle_gamma   90.00000000
_symmetry_Int_Tables_number   1
_chemical_formula_structural   HHe2Li4
_chemical_formula_sum   'H4 He8 Li16'
_cell_volume   637.77437444
_cell_formula_units_Z   4
loop_
 _symmetry_equiv_pos_site_id
 _symmetry_equiv_pos_as_xyz
  1  'x, y, z'
loop_
 _atom_site_type_symbol
 _atom_site_label
 _atom_site_symmetry_multiplicity
 _atom_site_fract_x
 _atom_site_fract_y
 _atom_site_fract_z
 _atom_site_occupancy
  H  H0  1  0.75000000  0.49702810  0.35853740  1
  H  H1  1  0.25000000  0.99702810  0.14146260  1
  H  H2  1  0.25000000  0.50297190  0.64146260  1
  H  H3  1  0.75000000  0.00297190  0.85853740  1
  He  He4  1  0.75000000  0.75303867  0.53365262  1
  He  He5  1  0.25000000  0.25303867  0.96634738  1
  He  He6  1  0.25000000  0.24696133  0.46634738  1
  He  He7  1  0.75000000  0.74696133  0.03365262  1
  He  He8  1  0.75000000  0.51477458  0.78833317  1
  He  He9  1  0.25000000  0.01477458  0.71166683  1
  He  He10  1  0.25000000  0.48522542  0.21166683  1
  He  He11  1  0.75000000  0.98522542  0.28833317  1
  Li  Li12  1  0.75000000  0.80282077  0.68145965  1
  Li  Li13  1  0.25000000  0.30282077  0.81854035  1
  Li  Li14  1  0.25000000  0.19717923  0.31854035  1
  Li  Li15  1  0.75000000  0.69717923  0.18145965  1
  Li  Li16  1  0.75000000  0.22138797  0.69568806  1
  Li  Li17  1  0.25000000  0.72138797  0.80431194  1
  Li  Li18  1  0.25000000  0.77861203  0.30431194  1
  Li  Li19  1  0.75000000  0.27861203  0.19568806  1
  Li  Li20  1  0.75000000  0.36466407  0.53110440  1
  Li  Li21  1  0.25000000  0.86466407  0.96889560  1
  Li  Li22  1  0.25000000  0.63533593  0.46889560  1
  Li  Li23  1  0.75000000  0.13533593  0.03110440  1
  Li  Li24  1  0.75000000  0.01707816  0.43184671  1
  Li  Li25  1  0.25000000  0.51707816  0.06815329  1
  Li  Li26  1  0.25000000  0.98292184  0.56815329  1
  Li  Li27  1  0.75000000  0.48292184  0.93184671  1
