# generated using pymatgen
data_H2He3
_symmetry_space_group_name_H-M   'P 1'
_cell_length_a   10.56725270
_cell_length_b   10.56725270
_cell_length_c   10.56725270
_cell_angle_alpha   23.74464224
_cell_angle_beta   23.74464224
_cell_angle_gamma   23.74464224
_symmetry_Int_Tables_number   1
_chemical_formula_structural   H2He3
_chemical_formula_sum   'H2 He3'
_cell_volume   168.06004039
_cell_formula_units_Z   1
loop_
 _symmetry_equiv_pos_site_id
 _symmetry_equiv_pos_as_xyz
  1  'x, y, z'
loop_
 _atom_site_type_symbol
 _atom_site_label
 _atom_site_symmetry_multiplicity
 _atom_site_fract_x
 _atom_site_fract_y
 _atom_site_fract_z
 _atom_site_occupancy
  H  H0  1  0.39781150  0.39781150  0.39781150  1
  H  H1  1  0.60218850  0.60218850  0.60218850  1
  He  He2  1  0.78663714  0.78663714  0.78663714  1
  He  He3  1  0.21336286  0.21336286  0.21336286  1
  He  He4  1  0.00000000  0.00000000  0.00000000  1
