# generated using pymatgen
data_H7He10Li2
_symmetry_space_group_name_H-M   'P 1'
_cell_length_a   10.21285739
_cell_length_b   6.38426792
_cell_length_c   9.98914464
_cell_angle_alpha   84.17197281
_cell_angle_beta   90.00000000
_cell_angle_gamma   90.00000000
_symmetry_Int_Tables_number   1
_chemical_formula_structural   H7He10Li2
_chemical_formula_sum   'H14 He20 Li4'
_cell_volume   647.94187943
_cell_formula_units_Z   2
loop_
 _symmetry_equiv_pos_site_id
 _symmetry_equiv_pos_as_xyz
  1  'x, y, z'
loop_
 _atom_site_type_symbol
 _atom_site_label
 _atom_site_symmetry_multiplicity
 _atom_site_fract_x
 _atom_site_fract_y
 _atom_site_fract_z
 _atom_site_occupancy
  H  H0  1  0.13956571  0.76097296  0.35094752  1
  H  H1  1  0.63956571  0.23902704  0.14905248  1
  H  H2  1  0.86043429  0.23902704  0.64905248  1
  H  H3  1  0.36043429  0.76097296  0.85094752  1
  H  H4  1  0.34931724  0.01578886  0.41186792  1
  H  H5  1  0.84931724  0.98421114  0.08813208  1
  H  H6  1  0.65068276  0.98421114  0.58813208  1
  H  H7  1  0.15068276  0.01578886  0.91186792  1
  H  H8  1  0.11620664  0.19086440  0.31010560  1
  H  H9  1  0.61620664  0.80913560  0.18989440  1
  H  H10  1  0.88379336  0.80913560  0.68989440  1
  H  H11  1  0.38379336  0.19086440  0.81010560  1
  H  H12  1  0.50000000  0.50000000  0.50000000  1
  H  H13  1  0.00000000  0.50000000  -0.00000000  1
  He  He14  1  0.20809167  0.49813444  0.20688811  1
  He  He15  1  0.70809167  0.50186556  0.29311189  1
  He  He16  1  0.79190833  0.50186556  0.79311189  1
  He  He17  1  0.29190833  0.49813444  0.70688811  1
  He  He18  1  0.53310870  0.81308615  0.43685163  1
  He  He19  1  0.03310870  0.18691385  0.06314837  1
  He  He20  1  0.46689130  0.18691385  0.56314837  1
  He  He21  1  0.96689130  0.81308615  0.93685163  1
  He  He22  1  0.15749730  0.46047914  0.49604313  1
  He  He23  1  0.65749730  0.53952086  0.00395687  1
  He  He24  1  0.84250270  0.53952086  0.50395687  1
  He  He25  1  0.34250270  0.46047914  0.99604313  1
  He  He26  1  0.40595126  0.72295671  0.16200838  1
  He  He27  1  0.90595126  0.27704329  0.33799162  1
  He  He28  1  0.59404874  0.27704329  0.83799162  1
  He  He29  1  0.09404874  0.72295671  0.66200838  1
  He  He30  1  0.93262817  0.67984865  0.27293619  1
  He  He31  1  0.43262817  0.32015135  0.22706381  1
  He  He32  1  0.06737183  0.32015135  0.72706381  1
  He  He33  1  0.56737183  0.67984865  0.77293619  1
  Li  Li34  1  0.35090183  0.49935948  0.14724747  1
  Li  Li35  1  0.85090183  0.50064052  0.35275253  1
  Li  Li36  1  0.64909817  0.50064052  0.85275253  1
  Li  Li37  1  0.14909817  0.49935948  0.64724747  1
