# generated using pymatgen
data_HHe6Li2Be
_symmetry_space_group_name_H-M   'P 1'
_cell_length_a   5.80984003
_cell_length_b   5.80984003
_cell_length_c   5.80984003
_cell_angle_alpha   123.73611169
_cell_angle_beta   123.73611169
_cell_angle_gamma   83.64217814
_symmetry_Int_Tables_number   1
_chemical_formula_structural   HHe6Li2Be
_chemical_formula_sum   'H1 He6 Li2 Be1'
_cell_volume   129.96106704
_cell_formula_units_Z   1
loop_
 _symmetry_equiv_pos_site_id
 _symmetry_equiv_pos_as_xyz
  1  'x, y, z'
loop_
 _atom_site_type_symbol
 _atom_site_label
 _atom_site_symmetry_multiplicity
 _atom_site_fract_x
 _atom_site_fract_y
 _atom_site_fract_z
 _atom_site_occupancy
  H  H0  1  -0.00000000  0.00000000  0.00000000  1
  He  He1  1  0.69348485  0.80173059  0.49521545  1
  He  He2  1  0.30651515  0.19826941  0.50478455  1
  He  He3  1  0.19826941  0.69348485  0.89175426  1
  He  He4  1  0.80173059  0.30651515  0.10824574  1
  He  He5  1  0.72450625  0.72450625  -0.00000000  1
  He  He6  1  0.27549375  0.27549375  -0.00000000  1
  Li  Li7  1  0.25000000  0.75000000  0.50000000  1
  Li  Li8  1  0.75000000  0.25000000  0.50000000  1
  Be  Be9  1  0.50000000  0.50000000  -0.00000000  1
