# generated using pymatgen
data_H4He7Li3Be2
_symmetry_space_group_name_H-M   'P 1'
_cell_length_a   10.75631600
_cell_length_b   10.75631600
_cell_length_c   10.75631600
_cell_angle_alpha   113.89896439
_cell_angle_beta   113.89896439
_cell_angle_gamma   100.93818764
_symmetry_Int_Tables_number   1
_chemical_formula_structural   H4He7Li3Be2
_chemical_formula_sum   'H16 He28 Li12 Be8'
_cell_volume   942.41215832
_cell_formula_units_Z   4
loop_
 _symmetry_equiv_pos_site_id
 _symmetry_equiv_pos_as_xyz
  1  'x, y, z'
loop_
 _atom_site_type_symbol
 _atom_site_label
 _atom_site_symmetry_multiplicity
 _atom_site_fract_x
 _atom_site_fract_y
 _atom_site_fract_z
 _atom_site_occupancy
  H  H0  1  0.67309695  0.65870884  0.01438811  1
  H  H1  1  0.14432074  0.65870884  0.48561189  1
  H  H2  1  0.15870884  0.17309695  0.51438811  1
  H  H3  1  0.15870884  0.64432074  0.98561189  1
  H  H4  1  0.85567926  0.34129116  0.51438811  1
  H  H5  1  0.32690305  0.34129116  0.98561189  1
  H  H6  1  0.84129116  0.82690305  0.48561189  1
  H  H7  1  0.84129116  0.35567926  0.01438811  1
  H  H8  1  0.54735458  0.95264542  0.25000000  1
  H  H9  1  0.20264542  0.29735458  0.25000000  1
  H  H10  1  0.79735458  0.04735458  0.09470917  1
  H  H11  1  0.45264542  0.70264542  0.40529083  1
  H  H12  1  0.45264542  0.04735458  0.75000000  1
  H  H13  1  0.79735458  0.70264542  0.75000000  1
  H  H14  1  0.20264542  0.95264542  0.90529083  1
  H  H15  1  0.54735458  0.29735458  0.59470917  1
  He  He16  1  0.06721452  0.83503689  0.98527740  1
  He  He17  1  0.34975950  0.08193713  0.51472260  1
  He  He18  1  0.58193713  0.56721452  0.73217763  1
  He  He19  1  0.33503689  0.84975950  0.76782237  1
  He  He20  1  0.65024050  0.16496311  0.73217763  1
  He  He21  1  0.93278548  0.91806287  0.76782237  1
  He  He22  1  0.66496311  0.43278548  0.51472260  1
  He  He23  1  0.41806287  0.15024050  0.98527740  1
  He  He24  1  0.93278548  0.16496311  0.01472260  1
  He  He25  1  0.65024050  0.91806287  0.48527740  1
  He  He26  1  0.41806287  0.43278548  0.26782237  1
  He  He27  1  0.66496311  0.15024050  0.23217763  1
  He  He28  1  0.34975950  0.83503689  0.26782237  1
  He  He29  1  0.06721452  0.08193713  0.23217763  1
  He  He30  1  0.33503689  0.56721452  0.48527740  1
  He  He31  1  0.58193713  0.84975950  0.01472260  1
  He  He32  1  0.84357750  0.82613709  0.01744041  1
  He  He33  1  0.30869668  0.82613709  0.48255959  1
  He  He34  1  0.32613709  0.34357750  0.51744041  1
  He  He35  1  0.32613709  0.80869668  0.98255959  1
  He  He36  1  0.69130332  0.17386291  0.51744041  1
  He  He37  1  0.15642250  0.17386291  0.98255959  1
  He  He38  1  0.67386291  0.65642250  0.48255959  1
  He  He39  1  0.67386291  0.19130332  0.01744041  1
  He  He40  1  0.64908199  0.39908199  0.25000000  1
  He  He41  1  0.89908199  0.14908199  0.75000000  1
  He  He42  1  0.35091801  0.60091801  0.75000000  1
  He  He43  1  0.10091801  0.85091801  0.25000000  1
  Li  Li44  1  0.00000000  0.64602955  0.64602955  1
  Li  Li45  1  0.50000000  0.35397045  0.85397045  1
  Li  Li46  1  0.85397045  0.50000000  0.85397045  1
  Li  Li47  1  0.14602955  0.00000000  0.64602955  1
  Li  Li48  1  -0.00000000  0.35397045  0.35397045  1
  Li  Li49  1  0.50000000  0.64602955  0.14602955  1
  Li  Li50  1  0.14602955  0.50000000  0.14602955  1
  Li  Li51  1  0.85397045  -0.00000000  0.35397045  1
  Li  Li52  1  0.87500000  0.62500000  0.25000000  1
  Li  Li53  1  0.12500000  0.37500000  0.75000000  1
  Li  Li54  1  0.62500000  0.87500000  0.75000000  1
  Li  Li55  1  0.37500000  0.12500000  0.25000000  1
  Be  Be56  1  0.27928372  0.90425341  0.37503031  1
  Be  Be57  1  0.02922310  0.90425341  0.12496969  1
  Be  Be58  1  0.40425341  0.77928372  0.87503031  1
  Be  Be59  1  0.40425341  0.52922310  0.62496969  1
  Be  Be60  1  0.97077690  0.09574659  0.87503031  1
  Be  Be61  1  0.72071628  0.09574659  0.62496969  1
  Be  Be62  1  0.59574659  0.22071628  0.12496969  1
  Be  Be63  1  0.59574659  0.47077690  0.37503031  1
