# generated using pymatgen
data_H9HeLi
_symmetry_space_group_name_H-M   'P 1'
_cell_length_a   11.91809740
_cell_length_b   11.91809740
_cell_length_c   20.60021249
_cell_angle_alpha   73.37033873
_cell_angle_beta   73.37033873
_cell_angle_gamma   33.82906361
_symmetry_Int_Tables_number   1
_chemical_formula_structural   H9HeLi
_chemical_formula_sum   'H36 He4 Li4'
_cell_volume   1554.41115140
_cell_formula_units_Z   4
loop_
 _symmetry_equiv_pos_site_id
 _symmetry_equiv_pos_as_xyz
  1  'x, y, z'
loop_
 _atom_site_type_symbol
 _atom_site_label
 _atom_site_symmetry_multiplicity
 _atom_site_fract_x
 _atom_site_fract_y
 _atom_site_fract_z
 _atom_site_occupancy
  H  H0  1  0.23085066  0.12127828  0.82396972  1
  H  H1  1  0.87872172  0.76914934  0.67603028  1
  H  H2  1  0.76914934  0.87872172  0.17603028  1
  H  H3  1  0.12127828  0.23085066  0.32396972  1
  H  H4  1  0.96074172  0.09084883  0.90201187  1
  H  H5  1  0.90915117  0.03925828  0.59798813  1
  H  H6  1  0.03925828  0.90915117  0.09798813  1
  H  H7  1  0.09084883  0.96074172  0.40201187  1
  H  H8  1  0.47364751  0.69865450  0.93102394  1
  H  H9  1  0.30134550  0.52635249  0.56897606  1
  H  H10  1  0.52635249  0.30134550  0.06897606  1
  H  H11  1  0.69865450  0.47364751  0.43102394  1
  H  H12  1  0.61059614  0.67160110  0.73549546  1
  H  H13  1  0.32839890  0.38940386  0.76450454  1
  H  H14  1  0.38940386  0.32839890  0.26450454  1
  H  H15  1  0.67160110  0.61059614  0.23549546  1
  H  H16  1  0.12159069  0.05136319  0.70620514  1
  H  H17  1  0.94863681  0.87840931  0.79379486  1
  H  H18  1  0.87840931  0.94863681  0.29379486  1
  H  H19  1  0.05136319  0.12159069  0.20620514  1
  H  H20  1  0.47411953  0.60822437  0.64432325  1
  H  H21  1  0.39177563  0.52588047  0.85567675  1
  H  H22  1  0.52588047  0.39177563  0.35567675  1
  H  H23  1  0.60822437  0.47411953  0.14432325  1
  H  H24  1  0.38255780  0.08525478  0.62966714  1
  H  H25  1  0.91474522  0.61744220  0.87033286  1
  H  H26  1  0.61744220  0.91474522  0.37033286  1
  H  H27  1  0.08525478  0.38255780  0.12966714  1
  H  H28  1  0.25907103  0.01281652  0.53552212  1
  H  H29  1  0.98718348  0.74092897  0.96447788  1
  H  H30  1  0.74092897  0.98718348  0.46447788  1
  H  H31  1  0.01281652  0.25907103  0.03552212  1
  H  H32  1  0.75114070  0.62605614  0.56931190  1
  H  H33  1  0.37394386  0.24885930  0.93068810  1
  H  H34  1  0.24885930  0.37394386  0.43068810  1
  H  H35  1  0.62605614  0.75114070  0.06931190  1
  He  He36  1  0.43624019  0.84860464  0.62924817  1
  He  He37  1  0.15139536  0.56375981  0.87075183  1
  He  He38  1  0.56375981  0.15139536  0.37075183  1
  He  He39  1  0.84860464  0.43624019  0.12924817  1
  Li  Li40  1  0.27690861  0.88306891  0.83816776  1
  Li  Li41  1  0.11693109  0.72309139  0.66183224  1
  Li  Li42  1  0.72309139  0.11693109  0.16183224  1
  Li  Li43  1  0.88306891  0.27690861  0.33816776  1
