# generated using pymatgen
data_H3He
_symmetry_space_group_name_H-M   'P 1'
_cell_length_a   3.94544071
_cell_length_b   5.95015692
_cell_length_c   10.46062728
_cell_angle_alpha   82.40112485
_cell_angle_beta   90.00000000
_cell_angle_gamma   90.00000000
_symmetry_Int_Tables_number   1
_chemical_formula_structural   H3He
_chemical_formula_sum   'H6 He2'
_cell_volume   243.41700141
_cell_formula_units_Z   2
loop_
 _symmetry_equiv_pos_site_id
 _symmetry_equiv_pos_as_xyz
  1  'x, y, z'
loop_
 _atom_site_type_symbol
 _atom_site_label
 _atom_site_symmetry_multiplicity
 _atom_site_fract_x
 _atom_site_fract_y
 _atom_site_fract_z
 _atom_site_occupancy
  H  H0  1  0.25000000  0.23670329  0.55283024  1
  H  H1  1  0.75000000  0.76329671  0.44716976  1
  H  H2  1  0.25000000  0.56999669  0.17449289  1
  H  H3  1  0.75000000  0.43000331  0.82550711  1
  H  H4  1  0.25000000  0.08752688  0.16937891  1
  H  H5  1  0.75000000  0.91247312  0.83062109  1
  He  He6  1  0.25000000  0.71136141  0.66592194  1
  He  He7  1  0.75000000  0.28863859  0.33407806  1
