# generated using pymatgen
data_H2HeLi4
_symmetry_space_group_name_H-M   'P 1'
_cell_length_a   8.69710447
_cell_length_b   8.69710447
_cell_length_c   6.07232819
_cell_angle_alpha   82.52172608
_cell_angle_beta   82.52172608
_cell_angle_gamma   133.71296638
_symmetry_Int_Tables_number   1
_chemical_formula_structural   H2HeLi4
_chemical_formula_sum   'H4 He2 Li8'
_cell_volume   313.26259084
_cell_formula_units_Z   2
loop_
 _symmetry_equiv_pos_site_id
 _symmetry_equiv_pos_as_xyz
  1  'x, y, z'
loop_
 _atom_site_type_symbol
 _atom_site_label
 _atom_site_symmetry_multiplicity
 _atom_site_fract_x
 _atom_site_fract_y
 _atom_site_fract_z
 _atom_site_occupancy
  H  H0  1  0.86334802  0.59851724  0.62711421  1
  H  H1  1  0.59851724  0.86334802  0.12711421  1
  H  H2  1  0.45978828  0.49658240  0.93722481  1
  H  H3  1  0.49658240  0.45978828  0.43722481  1
  He  He4  1  0.89230232  0.19888034  0.54759303  1
  He  He5  1  0.19888034  0.89230232  0.04759303  1
  Li  Li6  1  0.29282282  0.31320322  0.74898390  1
  Li  Li7  1  0.31320322  0.29282282  0.24898390  1
  Li  Li8  1  0.44139969  0.70753249  0.93498015  1
  Li  Li9  1  0.70753249  0.44139969  0.43498015  1
  Li  Li10  1  0.13225801  0.70199056  0.58493988  1
  Li  Li11  1  0.70199056  0.13225801  0.08493988  1
  Li  Li12  1  0.67501471  0.77715989  0.33708402  1
  Li  Li13  1  0.77715989  0.67501471  0.83708402  1
