# generated using pymatgen
data_HHeLi3Be
_symmetry_space_group_name_H-M   'P 1'
_cell_length_a   3.62202137
_cell_length_b   9.70463241
_cell_length_c   13.04716124
_cell_angle_alpha   90.00000000
_cell_angle_beta   90.00000000
_cell_angle_gamma   90.00000000
_symmetry_Int_Tables_number   1
_chemical_formula_structural   HHeLi3Be
_chemical_formula_sum   'H4 He4 Li12 Be4'
_cell_volume   458.61275376
_cell_formula_units_Z   4
loop_
 _symmetry_equiv_pos_site_id
 _symmetry_equiv_pos_as_xyz
  1  'x, y, z'
loop_
 _atom_site_type_symbol
 _atom_site_label
 _atom_site_symmetry_multiplicity
 _atom_site_fract_x
 _atom_site_fract_y
 _atom_site_fract_z
 _atom_site_occupancy
  H  H0  1  0.75000000  0.40664788  0.48788251  1
  H  H1  1  0.25000000  0.90664788  0.01211749  1
  H  H2  1  0.25000000  0.59335212  0.51211749  1
  H  H3  1  0.75000000  0.09335212  0.98788251  1
  He  He4  1  0.75000000  0.95956841  0.23201668  1
  He  He5  1  0.25000000  0.45956841  0.26798332  1
  He  He6  1  0.25000000  0.04043159  0.76798332  1
  He  He7  1  0.75000000  0.54043159  0.73201668  1
  Li  Li8  1  0.75000000  0.43493996  0.09519734  1
  Li  Li9  1  0.25000000  0.93493996  0.40480266  1
  Li  Li10  1  0.25000000  0.56506004  0.90480266  1
  Li  Li11  1  0.75000000  0.06506004  0.59519734  1
  Li  Li12  1  0.75000000  0.62872388  0.40184318  1
  Li  Li13  1  0.25000000  0.12872388  0.09815682  1
  Li  Li14  1  0.25000000  0.37127612  0.59815682  1
  Li  Li15  1  0.75000000  0.87127612  0.90184318  1
  Li  Li16  1  0.75000000  0.23767586  0.36673025  1
  Li  Li17  1  0.25000000  0.73767586  0.13326975  1
  Li  Li18  1  0.25000000  0.76232414  0.63326975  1
  Li  Li19  1  0.75000000  0.26232414  0.86673025  1
  Be  Be20  1  0.75000000  0.67234513  0.01197884  1
  Be  Be21  1  0.25000000  0.17234513  0.48802116  1
  Be  Be22  1  0.25000000  0.32765487  0.98802116  1
  Be  Be23  1  0.75000000  0.82765487  0.51197884  1
