# generated using pymatgen
data_H3He4Li
_symmetry_space_group_name_H-M   'P 1'
_cell_length_a   9.58194694
_cell_length_b   9.54202915
_cell_length_c   11.16516854
_cell_angle_alpha   90.00000000
_cell_angle_beta   90.00000000
_cell_angle_gamma   90.00000000
_symmetry_Int_Tables_number   1
_chemical_formula_structural   H3He4Li
_chemical_formula_sum   'H12 He16 Li4'
_cell_volume   1020.84494721
_cell_formula_units_Z   4
loop_
 _symmetry_equiv_pos_site_id
 _symmetry_equiv_pos_as_xyz
  1  'x, y, z'
loop_
 _atom_site_type_symbol
 _atom_site_label
 _atom_site_symmetry_multiplicity
 _atom_site_fract_x
 _atom_site_fract_y
 _atom_site_fract_z
 _atom_site_occupancy
  H  H0  1  0.79148227  0.95300315  0.54372688  1
  H  H1  1  0.29148227  0.54699685  0.45627312  1
  H  H2  1  0.20851773  0.04699685  0.04372688  1
  H  H3  1  0.70851773  0.45300315  0.95627312  1
  H  H4  1  0.20851773  0.04699685  0.45627312  1
  H  H5  1  0.70851773  0.45300315  0.54372688  1
  H  H6  1  0.79148227  0.95300315  0.95627312  1
  H  H7  1  0.29148227  0.54699685  0.04372688  1
  H  H8  1  0.58704046  0.85423565  0.25000000  1
  H  H9  1  0.08704046  0.64576435  0.75000000  1
  H  H10  1  0.41295954  0.14576435  0.75000000  1
  H  H11  1  0.91295954  0.35423565  0.25000000  1
  He  He12  1  0.75676271  0.20534052  0.75000000  1
  He  He13  1  0.25676271  0.29465948  0.25000000  1
  He  He14  1  0.24323729  0.79465948  0.25000000  1
  He  He15  1  0.74323729  0.70534052  0.75000000  1
  He  He16  1  0.92823838  0.99075547  0.25000000  1
  He  He17  1  0.42823838  0.50924453  0.75000000  1
  He  He18  1  0.07176162  0.00924453  0.75000000  1
  He  He19  1  0.57176162  0.49075547  0.25000000  1
  He  He20  1  0.95103415  0.67064545  0.41114398  1
  He  He21  1  0.45103415  0.82935455  0.58885602  1
  He  He22  1  0.04896585  0.32935455  0.91114398  1
  He  He23  1  0.54896585  0.17064545  0.08885602  1
  He  He24  1  0.04896585  0.32935455  0.58885602  1
  He  He25  1  0.54896585  0.17064545  0.41114398  1
  He  He26  1  0.95103415  0.67064545  0.08885602  1
  He  He27  1  0.45103415  0.82935455  0.91114398  1
  Li  Li28  1  0.98332250  0.22011339  0.75000000  1
  Li  Li29  1  0.48332250  0.27988661  0.25000000  1
  Li  Li30  1  0.01667750  0.77988661  0.25000000  1
  Li  Li31  1  0.51667750  0.72011339  0.75000000  1
