# generated using pymatgen
data_H2He3
_symmetry_space_group_name_H-M   'P 1'
_cell_length_a   3.75450158
_cell_length_b   3.75423795
_cell_length_c   5.97274012
_cell_angle_alpha   89.99735424
_cell_angle_beta   90.00000000
_cell_angle_gamma   120.00232295
_symmetry_Int_Tables_number   1
_chemical_formula_structural   H2He3
_chemical_formula_sum   'H2 He3'
_cell_volume   72.90682230
_cell_formula_units_Z   1
loop_
 _symmetry_equiv_pos_site_id
 _symmetry_equiv_pos_as_xyz
  1  'x, y, z'
loop_
 _atom_site_type_symbol
 _atom_site_label
 _atom_site_symmetry_multiplicity
 _atom_site_fract_x
 _atom_site_fract_y
 _atom_site_fract_z
 _atom_site_occupancy
  H  H0  1  0.66668374  0.33336748  0.24900320  1
  H  H1  1  0.33331626  0.66663252  0.75099680  1
  He  He2  1  0.00000000  0.00000000  -0.00000000  1
  He  He3  1  0.66667901  0.33335802  0.64525941  1
  He  He4  1  0.33332099  0.66664198  0.35474059  1
