# generated using pymatgen
data_H3He7Li
_symmetry_space_group_name_H-M   'P 1'
_cell_length_a   6.85393843
_cell_length_b   6.85393843
_cell_length_c   7.88623347
_cell_angle_alpha   90.00000000
_cell_angle_beta   90.00000000
_cell_angle_gamma   110.92907865
_symmetry_Int_Tables_number   1
_chemical_formula_structural   H3He7Li
_chemical_formula_sum   'H6 He14 Li2'
_cell_volume   346.02520892
_cell_formula_units_Z   2
loop_
 _symmetry_equiv_pos_site_id
 _symmetry_equiv_pos_as_xyz
  1  'x, y, z'
loop_
 _atom_site_type_symbol
 _atom_site_label
 _atom_site_symmetry_multiplicity
 _atom_site_fract_x
 _atom_site_fract_y
 _atom_site_fract_z
 _atom_site_occupancy
  H  H0  1  0.00000000  0.00000000  0.00000000  1
  H  H1  1  0.00000000  0.00000000  0.50000000  1
  H  H2  1  0.52113340  0.06816675  0.25000000  1
  H  H3  1  0.47886660  0.93183325  0.75000000  1
  H  H4  1  0.06816675  0.52113340  0.25000000  1
  H  H5  1  0.93183325  0.47886660  0.75000000  1
  He  He6  1  0.44111683  0.19262151  0.96710260  1
  He  He7  1  0.55888317  0.80737849  0.46710260  1
  He  He8  1  0.19262151  0.44111683  0.53289740  1
  He  He9  1  0.80737849  0.55888317  0.03289740  1
  He  He10  1  0.55888317  0.80737849  0.03289740  1
  He  He11  1  0.44111683  0.19262151  0.53289740  1
  He  He12  1  0.80737849  0.55888317  0.46710260  1
  He  He13  1  0.19262151  0.44111683  0.96710260  1
  He  He14  1  0.15232167  0.88999954  0.25000000  1
  He  He15  1  0.84767833  0.11000046  0.75000000  1
  He  He16  1  0.88999954  0.15232167  0.25000000  1
  He  He17  1  0.11000046  0.84767833  0.75000000  1
  He  He18  1  0.42420607  0.42420607  0.25000000  1
  He  He19  1  0.57579393  0.57579393  0.75000000  1
  Li  Li20  1  0.50000000  0.50000000  0.00000000  1
  Li  Li21  1  0.50000000  0.50000000  0.50000000  1
