# generated using pymatgen
data_H2He
_symmetry_space_group_name_H-M   'P 1'
_cell_length_a   6.05225676
_cell_length_b   6.05225676
_cell_length_c   9.83591095
_cell_angle_alpha   90.00000000
_cell_angle_beta   90.00000000
_cell_angle_gamma   120.01050933
_symmetry_Int_Tables_number   1
_chemical_formula_structural   H2He
_chemical_formula_sum   'H8 He4'
_cell_volume   311.98513908
_cell_formula_units_Z   4
loop_
 _symmetry_equiv_pos_site_id
 _symmetry_equiv_pos_as_xyz
  1  'x, y, z'
loop_
 _atom_site_type_symbol
 _atom_site_label
 _atom_site_symmetry_multiplicity
 _atom_site_fract_x
 _atom_site_fract_y
 _atom_site_fract_z
 _atom_site_occupancy
  H  H0  1  -0.00000000  -0.00000000  0.00000000  1
  H  H1  1  0.00000000  0.00000000  0.50000000  1
  H  H2  1  0.82900136  0.65799636  0.25000000  1
  H  H3  1  0.34200364  0.17099864  0.25000000  1
  H  H4  1  0.82899060  0.17100940  0.25000000  1
  H  H5  1  0.17099864  0.34200364  0.75000000  1
  H  H6  1  0.65799636  0.82900136  0.75000000  1
  H  H7  1  0.17100940  0.82899060  0.75000000  1
  He  He8  1  0.33332394  0.66667606  0.06426309  1
  He  He9  1  0.66667606  0.33332394  0.56426309  1
  He  He10  1  0.66667606  0.33332394  0.93573691  1
  He  He11  1  0.33332394  0.66667606  0.43573691  1
