# generated using pymatgen
data_H2He11(LiBe)2
_symmetry_space_group_name_H-M   'P 1'
_cell_length_a   7.78391349
_cell_length_b   7.68147222
_cell_length_c   9.79029537
_cell_angle_alpha   85.87309345
_cell_angle_beta   90.00000000
_cell_angle_gamma   90.00000000
_symmetry_Int_Tables_number   1
_chemical_formula_structural   H2He11(LiBe)2
_chemical_formula_sum   'H4 He22 Li4 Be4'
_cell_volume   583.86267609
_cell_formula_units_Z   2
loop_
 _symmetry_equiv_pos_site_id
 _symmetry_equiv_pos_as_xyz
  1  'x, y, z'
loop_
 _atom_site_type_symbol
 _atom_site_label
 _atom_site_symmetry_multiplicity
 _atom_site_fract_x
 _atom_site_fract_y
 _atom_site_fract_z
 _atom_site_occupancy
  H  H0  1  0.25000000  0.35825067  0.57497364  1
  H  H1  1  0.75000000  0.64174933  0.42502636  1
  H  H2  1  0.25000000  0.63331887  0.14324685  1
  H  H3  1  0.75000000  0.36668113  0.85675315  1
  He  He4  1  0.25000000  0.69661669  0.85190412  1
  He  He5  1  0.75000000  0.30338331  0.14809588  1
  He  He6  1  0.98212239  0.57888010  0.67954074  1
  He  He7  1  0.48212239  0.42111990  0.32045926  1
  He  He8  1  0.01787761  0.42111990  0.32045926  1
  He  He9  1  0.51787761  0.57888010  0.67954074  1
  He  He10  1  0.25000000  0.84045428  0.60762463  1
  He  He11  1  0.75000000  0.15954572  0.39237537  1
  He  He12  1  0.93297153  0.69599910  0.94604531  1
  He  He13  1  0.43297153  0.30400090  0.05395469  1
  He  He14  1  0.06702847  0.30400090  0.05395469  1
  He  He15  1  0.56702847  0.69599910  0.94604531  1
  He  He16  1  0.75000000  0.01736486  0.93183618  1
  He  He17  1  0.25000000  0.98263514  0.06816382  1
  He  He18  1  0.75000000  0.81888529  0.17985237  1
  He  He19  1  0.25000000  0.18111471  0.82014763  1
  He  He20  1  0.07416647  0.79789232  0.35479039  1
  He  He21  1  0.57416647  0.20210768  0.64520961  1
  He  He22  1  0.92583353  0.20210768  0.64520961  1
  He  He23  1  0.42583353  0.79789232  0.35479039  1
  He  He24  1  0.25000000  0.11646340  0.38026699  1
  He  He25  1  0.75000000  0.88353660  0.61973301  1
  Li  Li26  1  0.03568554  0.78571342  0.75819950  1
  Li  Li27  1  0.53568554  0.21428658  0.24180050  1
  Li  Li28  1  0.96431446  0.21428658  0.24180050  1
  Li  Li29  1  0.46431446  0.78571342  0.75819950  1
  Be  Be30  1  0.75000000  0.81573994  0.00915308  1
  Be  Be31  1  0.25000000  0.18426006  0.99084692  1
  Be  Be32  1  0.25000000  0.89012036  0.42197148  1
  Be  Be33  1  0.75000000  0.10987964  0.57802852  1
