# generated using pymatgen
data_H2He2Li
_symmetry_space_group_name_H-M   'P 1'
_cell_length_a   3.76794644
_cell_length_b   3.76776899
_cell_length_c   6.56350449
_cell_angle_alpha   89.99876148
_cell_angle_beta   90.00000000
_cell_angle_gamma   120.00155792
_symmetry_Int_Tables_number   1
_chemical_formula_structural   H2He2Li
_chemical_formula_sum   'H2 He2 Li1'
_cell_volume   80.69536457
_cell_formula_units_Z   1
loop_
 _symmetry_equiv_pos_site_id
 _symmetry_equiv_pos_as_xyz
  1  'x, y, z'
loop_
 _atom_site_type_symbol
 _atom_site_label
 _atom_site_symmetry_multiplicity
 _atom_site_fract_x
 _atom_site_fract_y
 _atom_site_fract_z
 _atom_site_occupancy
  H  H0  1  0.66667776  0.33335552  0.28277682  1
  H  H1  1  0.33332224  0.66664448  0.71722318  1
  He  He2  1  0.66667374  0.33334748  0.62976790  1
  He  He3  1  0.33332626  0.66665252  0.37023210  1
  Li  Li4  1  -0.00000000  -0.00000000  0.00000000  1
