# generated using pymatgen
data_HHe12Li4Be
_symmetry_space_group_name_H-M   'P 1'
_cell_length_a   8.42968037
_cell_length_b   7.32464869
_cell_length_c   7.96293614
_cell_angle_alpha   88.40053479
_cell_angle_beta   90.00000000
_cell_angle_gamma   90.00000000
_symmetry_Int_Tables_number   1
_chemical_formula_structural   HHe12Li4Be
_chemical_formula_sum   'H2 He24 Li8 Be2'
_cell_volume   491.47552549
_cell_formula_units_Z   2
loop_
 _symmetry_equiv_pos_site_id
 _symmetry_equiv_pos_as_xyz
  1  'x, y, z'
loop_
 _atom_site_type_symbol
 _atom_site_label
 _atom_site_symmetry_multiplicity
 _atom_site_fract_x
 _atom_site_fract_y
 _atom_site_fract_z
 _atom_site_occupancy
  H  H0  1  0.45425141  0.73005985  0.71824007  1
  H  H1  1  0.95425141  0.26994015  0.28175993  1
  He  He2  1  0.52968234  0.67844678  0.07225396  1
  He  He3  1  0.02968234  0.32155322  0.92774604  1
  He  He4  1  0.35355720  0.42717020  0.96039778  1
  He  He5  1  0.85355720  0.57282980  0.03960222  1
  He  He6  1  0.22756285  0.68950894  0.10861610  1
  He  He7  1  0.72756285  0.31049106  0.89138390  1
  He  He8  1  0.36997504  0.46373623  0.27669564  1
  He  He9  1  0.86997504  0.53626377  0.72330436  1
  He  He10  1  0.20744702  0.97861601  0.92514173  1
  He  He11  1  0.70744702  0.02138399  0.07485827  1
  He  He12  1  0.01390247  0.91035985  0.17240845  1
  He  He13  1  0.51390247  0.08964015  0.82759155  1
  He  He14  1  0.29799001  0.00858467  0.21854744  1
  He  He15  1  0.79799001  0.99141533  0.78145256  1
  He  He16  1  0.51358978  0.83654637  0.38447849  1
  He  He17  1  0.01358978  0.16345363  0.61552151  1
  He  He18  1  0.31142502  0.03450645  0.53565011  1
  He  He19  1  0.81142502  0.96549355  0.46434989  1
  He  He20  1  0.52085479  0.17676566  0.33972637  1
  He  He21  1  0.02085479  0.82323434  0.66027363  1
  He  He22  1  0.66400879  0.47384833  0.35279438  1
  He  He23  1  0.16400879  0.52615167  0.64720562  1
  He  He24  1  0.45131981  0.38971042  0.57627098  1
  He  He25  1  0.95131981  0.61028958  0.42372902  1
  Li  Li26  1  0.38364556  0.56373505  0.09383833  1
  Li  Li27  1  0.88364556  0.43626495  0.90616167  1
  Li  Li28  1  0.17676334  0.90090890  0.09872182  1
  Li  Li29  1  0.67676334  0.09909110  0.90127818  1
  Li  Li30  1  0.40960278  0.00288768  0.38166384  1
  Li  Li31  1  0.90960278  0.99711232  0.61833616  1
  Li  Li32  1  0.50952311  0.38465517  0.39873342  1
  Li  Li33  1  0.00952311  0.61534483  0.60126658  1
  Be  Be34  1  0.75806866  0.76238524  0.24223507  1
  Be  Be35  1  0.25806866  0.23761476  0.75776493  1
