# generated using pymatgen
data_H2He3Li
_symmetry_space_group_name_H-M   'P 1'
_cell_length_a   6.41144813
_cell_length_b   6.41185759
_cell_length_c   7.18183649
_cell_angle_alpha   90.00217111
_cell_angle_beta   89.99663844
_cell_angle_gamma   119.99730599
_symmetry_Int_Tables_number   1
_chemical_formula_structural   H2He3Li
_chemical_formula_sum   'H4 He6 Li2'
_cell_volume   255.69246733
_cell_formula_units_Z   2
loop_
 _symmetry_equiv_pos_site_id
 _symmetry_equiv_pos_as_xyz
  1  'x, y, z'
loop_
 _atom_site_type_symbol
 _atom_site_label
 _atom_site_symmetry_multiplicity
 _atom_site_fract_x
 _atom_site_fract_y
 _atom_site_fract_z
 _atom_site_occupancy
  H  H0  1  0.00000000  -0.00000000  0.00000000  1
  H  H1  1  0.00000000  -0.00000000  0.50000000  1
  H  H2  1  0.33331798  0.66667586  0.62439272  1
  H  H3  1  0.66668202  0.33332414  0.37560728  1
  He  He4  1  0.27215758  0.37889799  0.26270199  1
  He  He5  1  0.62109336  0.89326542  0.26269774  1
  He  He6  1  0.10674984  0.72783238  0.26270299  1
  He  He7  1  0.72784242  0.62110201  0.73729801  1
  He  He8  1  0.37890664  0.10673458  0.73730226  1
  He  He9  1  0.89325016  0.27216762  0.73729701  1
  Li  Li10  1  0.33331801  0.66668834  0.14387889  1
  Li  Li11  1  0.66668199  0.33331166  0.85612111  1
