# generated using pymatgen
data_H3He
_symmetry_space_group_name_H-M   'P 1'
_cell_length_a   7.30197814
_cell_length_b   7.30197814
_cell_length_c   7.47003269
_cell_angle_alpha   89.99987015
_cell_angle_beta   90.00012985
_cell_angle_gamma   120.00113986
_symmetry_Int_Tables_number   1
_chemical_formula_structural   H3He
_chemical_formula_sum   'H18 He6'
_cell_volume   344.92859720
_cell_formula_units_Z   6
loop_
 _symmetry_equiv_pos_site_id
 _symmetry_equiv_pos_as_xyz
  1  'x, y, z'
loop_
 _atom_site_type_symbol
 _atom_site_label
 _atom_site_symmetry_multiplicity
 _atom_site_fract_x
 _atom_site_fract_y
 _atom_site_fract_z
 _atom_site_occupancy
  H  H0  1  0.36715235  0.05580068  0.08087725  1
  H  H1  1  0.94420783  0.31135011  0.08087853  1
  H  H2  1  0.68864654  0.63284880  0.08087944  1
  H  H3  1  0.05580068  0.36715235  0.41912275  1
  H  H4  1  0.31135011  0.94420783  0.41912147  1
  H  H5  1  0.63284880  0.68864654  0.41912056  1
  H  H6  1  0.63284765  0.94419932  0.91912275  1
  H  H7  1  0.05579217  0.68864989  0.91912147  1
  H  H8  1  0.31135346  0.36715120  0.91912056  1
  H  H9  1  0.94419932  0.63284765  0.58087725  1
  H  H10  1  0.68864989  0.05579217  0.58087853  1
  H  H11  1  0.36715120  0.31135346  0.58087944  1
  H  H12  1  0.33333080  0.66666823  0.18738752  1
  H  H13  1  0.66666823  0.33333080  0.31261248  1
  H  H14  1  0.66666920  0.33333177  0.81261248  1
  H  H15  1  0.33333177  0.66666920  0.68738752  1
  H  H16  1  0.00000554  0.00000554  0.25000000  1
  H  H17  1  0.99999446  0.99999446  0.75000000  1
  He  He18  1  0.65821659  0.00000263  0.24999940  1
  He  He19  1  0.00000263  0.65821659  0.25000060  1
  He  He20  1  0.34179084  0.34179084  0.25000000  1
  He  He21  1  0.34178341  0.99999737  0.75000060  1
  He  He22  1  0.99999737  0.34178341  0.74999940  1
  He  He23  1  0.65820916  0.65820916  0.75000000  1
