# generated using pymatgen
data_H2He7Li
_symmetry_space_group_name_H-M   'P 1'
_cell_length_a   13.58017276
_cell_length_b   7.13433073
_cell_length_c   12.72958813
_cell_angle_alpha   80.92407831
_cell_angle_beta   90.00000000
_cell_angle_gamma   90.00000000
_symmetry_Int_Tables_number   1
_chemical_formula_structural   H2He7Li
_chemical_formula_sum   'H8 He28 Li4'
_cell_volume   1217.87095940
_cell_formula_units_Z   4
loop_
 _symmetry_equiv_pos_site_id
 _symmetry_equiv_pos_as_xyz
  1  'x, y, z'
loop_
 _atom_site_type_symbol
 _atom_site_label
 _atom_site_symmetry_multiplicity
 _atom_site_fract_x
 _atom_site_fract_y
 _atom_site_fract_z
 _atom_site_occupancy
  H  H0  1  0.86879834  0.75489708  0.63349813  1
  H  H1  1  0.36879834  0.24510292  0.36650187  1
  H  H2  1  0.71176329  0.24363483  0.86701213  1
  H  H3  1  0.21176329  0.75636517  0.13298787  1
  H  H4  1  0.63424947  0.71174314  0.23807314  1
  H  H5  1  0.13424947  0.28825686  0.76192686  1
  H  H6  1  0.95625203  0.23890207  0.24065385  1
  H  H7  1  0.45625203  0.76109793  0.75934615  1
  He  He8  1  0.84865258  0.87632450  0.86539323  1
  He  He9  1  0.34865258  0.12367550  0.13460677  1
  He  He10  1  0.76210506  0.89512558  0.40881620  1
  He  He11  1  0.26210506  0.10487442  0.59118380  1
  He  He12  1  0.01255566  0.04207122  0.48224365  1
  He  He13  1  0.51255566  0.95792878  0.51775635  1
  He  He14  1  0.55157717  0.93705456  0.98988611  1
  He  He15  1  0.05157717  0.06294544  0.01011389  1
  He  He16  1  0.73345295  0.13091118  0.63183005  1
  He  He17  1  0.23345295  0.86908882  0.36816995  1
  He  He18  1  0.79470943  0.03560614  0.10353388  1
  He  He19  1  0.29470943  0.96439386  0.89646612  1
  He  He20  1  0.66464710  0.62285628  0.72506223  1
  He  He21  1  0.16464710  0.37714372  0.27493777  1
  He  He22  1  0.04244507  0.55532515  0.01854237  1
  He  He23  1  0.54244507  0.44467485  0.98145763  1
  He  He24  1  0.98524194  0.77784982  0.23587813  1
  He  He25  1  0.48524194  0.22215018  0.76412187  1
  He  He26  1  0.79732155  0.53762979  0.09723736  1
  He  He27  1  0.29732155  0.46237021  0.90276264  1
  He  He28  1  0.58490014  0.16886456  0.26629319  1
  He  He29  1  0.08490014  0.83113544  0.73370681  1
  He  He30  1  0.55280417  0.45726467  0.46042157  1
  He  He31  1  0.05280417  0.54273533  0.53957843  1
  He  He32  1  0.91608720  0.38200354  0.78300413  1
  He  He33  1  0.41608720  0.61799646  0.21699587  1
  He  He34  1  0.79120968  0.40196358  0.37720214  1
  He  He35  1  0.29120968  0.59803642  0.62279786  1
  Li  Li36  1  0.65700659  0.17005268  0.45093635  1
  Li  Li37  1  0.15700659  0.82994732  0.54906365  1
  Li  Li38  1  0.92087056  0.80326220  0.04646208  1
  Li  Li39  1  0.42087056  0.19673780  0.95353792  1
