# generated using pymatgen
data_HHe
_symmetry_space_group_name_H-M   'P 1'
_cell_length_a   6.63410320
_cell_length_b   6.63410320
_cell_length_c   6.63410320
_cell_angle_alpha   105.99209920
_cell_angle_beta   105.99209920
_cell_angle_gamma   116.67892748
_symmetry_Int_Tables_number   1
_chemical_formula_structural   HHe
_chemical_formula_sum   'H4 He4'
_cell_volume   222.06328576
_cell_formula_units_Z   4
loop_
 _symmetry_equiv_pos_site_id
 _symmetry_equiv_pos_as_xyz
  1  'x, y, z'
loop_
 _atom_site_type_symbol
 _atom_site_label
 _atom_site_symmetry_multiplicity
 _atom_site_fract_x
 _atom_site_fract_y
 _atom_site_fract_z
 _atom_site_occupancy
  H  H0  1  0.17060729  0.32939271  0.50000000  1
  H  H1  1  0.82939271  0.67060729  0.50000000  1
  H  H2  1  0.32939271  0.82939271  0.15878542  1
  H  H3  1  0.67060729  0.17060729  0.84121458  1
  He  He4  1  0.25000000  0.25000000  0.00000000  1
  He  He5  1  0.75000000  0.75000000  0.00000000  1
  He  He6  1  0.25000000  0.75000000  0.50000000  1
  He  He7  1  0.75000000  0.25000000  0.50000000  1
