# generated using pymatgen
data_H2He2Li3
_symmetry_space_group_name_H-M   'P 1'
_cell_length_a   3.90506250
_cell_length_b   9.09314770
_cell_length_c   9.68869926
_cell_angle_alpha   67.39243312
_cell_angle_beta   90.00000000
_cell_angle_gamma   90.00000000
_symmetry_Int_Tables_number   1
_chemical_formula_structural   H2He2Li3
_chemical_formula_sum   'H4 He4 Li6'
_cell_volume   317.60288054
_cell_formula_units_Z   2
loop_
 _symmetry_equiv_pos_site_id
 _symmetry_equiv_pos_as_xyz
  1  'x, y, z'
loop_
 _atom_site_type_symbol
 _atom_site_label
 _atom_site_symmetry_multiplicity
 _atom_site_fract_x
 _atom_site_fract_y
 _atom_site_fract_z
 _atom_site_occupancy
  H  H0  1  0.25000000  0.24064991  0.34977829  1
  H  H1  1  0.75000000  0.75935009  0.65022171  1
  H  H2  1  0.25000000  0.08614574  0.94281982  1
  H  H3  1  0.75000000  0.91385426  0.05718018  1
  He  He4  1  0.25000000  0.31514274  0.50876993  1
  He  He5  1  0.75000000  0.68485726  0.49123007  1
  He  He6  1  0.25000000  0.43018719  0.17373888  1
  He  He7  1  0.75000000  0.56981281  0.82626112  1
  Li  Li8  1  0.25000000  0.68241533  0.94351034  1
  Li  Li9  1  0.75000000  0.31758467  0.05648966  1
  Li  Li10  1  0.25000000  0.48122249  0.66972270  1
  Li  Li11  1  0.75000000  0.51877751  0.33027730  1
  Li  Li12  1  0.25000000  0.88114548  0.35283240  1
  Li  Li13  1  0.75000000  0.11885452  0.64716760  1
