# generated using pymatgen
data_HHeLi
_symmetry_space_group_name_H-M   'P 1'
_cell_length_a   3.98004431
_cell_length_b   6.64438340
_cell_length_c   7.70252485
_cell_angle_alpha   90.00000000
_cell_angle_beta   90.00000000
_cell_angle_gamma   90.00000000
_symmetry_Int_Tables_number   1
_chemical_formula_structural   HHeLi
_chemical_formula_sum   'H4 He4 Li4'
_cell_volume   203.69280985
_cell_formula_units_Z   4
loop_
 _symmetry_equiv_pos_site_id
 _symmetry_equiv_pos_as_xyz
  1  'x, y, z'
loop_
 _atom_site_type_symbol
 _atom_site_label
 _atom_site_symmetry_multiplicity
 _atom_site_fract_x
 _atom_site_fract_y
 _atom_site_fract_z
 _atom_site_occupancy
  H  H0  1  0.25000000  0.74988090  0.37888335  1
  H  H1  1  0.75000000  0.75011910  0.87888335  1
  H  H2  1  0.75000000  0.25011910  0.62111665  1
  H  H3  1  0.25000000  0.24988090  0.12111665  1
  He  He4  1  0.25000000  0.02974583  0.81559498  1
  He  He5  1  0.75000000  0.47025417  0.31559498  1
  He  He6  1  0.75000000  0.97025417  0.18440502  1
  He  He7  1  0.25000000  0.52974583  0.68440502  1
  Li  Li8  1  0.25000000  0.14472503  0.43576338  1
  Li  Li9  1  0.75000000  0.35527497  0.93576338  1
  Li  Li10  1  0.75000000  0.85527497  0.56423662  1
  Li  Li11  1  0.25000000  0.64472503  0.06423662  1
