# generated using pymatgen
data_HHe3Li6Be
_symmetry_space_group_name_H-M   'P 1'
_cell_length_a   5.48508232
_cell_length_b   5.48516035
_cell_length_c   5.48513198
_cell_angle_alpha   90.61727885
_cell_angle_beta   90.61524424
_cell_angle_gamma   90.61630964
_symmetry_Int_Tables_number   1
_chemical_formula_structural   HHe3Li6Be
_chemical_formula_sum   'H1 He3 Li6 Be1'
_cell_volume   164.99988482
_cell_formula_units_Z   1
loop_
 _symmetry_equiv_pos_site_id
 _symmetry_equiv_pos_as_xyz
  1  'x, y, z'
loop_
 _atom_site_type_symbol
 _atom_site_label
 _atom_site_symmetry_multiplicity
 _atom_site_fract_x
 _atom_site_fract_y
 _atom_site_fract_z
 _atom_site_occupancy
  H  H0  1  0.01014678  0.01014715  0.01011325  1
  He  He1  1  0.46477419  0.02992029  0.07058018  1
  He  He2  1  0.07058411  0.46477414  0.02991435  1
  He  He3  1  0.02992126  0.07058746  0.46475326  1
  Li  Li4  1  0.57860183  0.22915617  0.06911080  1
  Li  Li5  1  0.06911588  0.57859965  0.22915229  1
  Li  Li6  1  0.22915454  0.06911580  0.57858899  1
  Li  Li7  1  0.59341315  0.83868707  0.06384141  1
  Li  Li8  1  0.06385250  0.59340848  0.83868083  1
  Li  Li9  1  0.83868132  0.06384958  0.59338774  1
  Be  Be10  1  0.54725446  0.54725422  0.54717690  1
