# generated using pymatgen
data_HHeLiBe2
_symmetry_space_group_name_H-M   'P 1'
_cell_length_a   4.02047113
_cell_length_b   10.18962995
_cell_length_c   13.12266028
_cell_angle_alpha   90.00000000
_cell_angle_beta   90.00000000
_cell_angle_gamma   90.00000000
_symmetry_Int_Tables_number   1
_chemical_formula_structural   HHeLiBe2
_chemical_formula_sum   'H4 He4 Li4 Be8'
_cell_volume   537.59750673
_cell_formula_units_Z   4
loop_
 _symmetry_equiv_pos_site_id
 _symmetry_equiv_pos_as_xyz
  1  'x, y, z'
loop_
 _atom_site_type_symbol
 _atom_site_label
 _atom_site_symmetry_multiplicity
 _atom_site_fract_x
 _atom_site_fract_y
 _atom_site_fract_z
 _atom_site_occupancy
  H  H0  1  0.25000000  0.93005030  0.38753239  1
  H  H1  1  0.75000000  0.56994970  0.88753239  1
  H  H2  1  0.75000000  0.06994970  0.61246761  1
  H  H3  1  0.25000000  0.43005030  0.11246761  1
  He  He4  1  0.75000000  0.99358300  0.26349316  1
  He  He5  1  0.25000000  0.50641700  0.76349316  1
  He  He6  1  0.25000000  0.00641700  0.73650684  1
  He  He7  1  0.75000000  0.49358300  0.23650684  1
  Li  Li8  1  0.25000000  0.31715161  0.46179245  1
  Li  Li9  1  0.75000000  0.18284839  0.96179245  1
  Li  Li10  1  0.75000000  0.68284839  0.53820755  1
  Li  Li11  1  0.25000000  0.81715161  0.03820755  1
  Be  Be12  1  0.75000000  0.25319335  0.32649131  1
  Be  Be13  1  0.25000000  0.24680665  0.82649131  1
  Be  Be14  1  0.25000000  0.74680665  0.67350869  1
  Be  Be15  1  0.75000000  0.75319335  0.17350869  1
  Be  Be16  1  0.25000000  0.55477864  0.38289230  1
  Be  Be17  1  0.75000000  0.94522136  0.88289230  1
  Be  Be18  1  0.75000000  0.44522136  0.61710770  1
  Be  Be19  1  0.25000000  0.05477864  0.11710770  1
