# generated using pymatgen
data_H2He
_symmetry_space_group_name_H-M   'P 1'
_cell_length_a   8.46683277
_cell_length_b   5.18798425
_cell_length_c   5.22846715
_cell_angle_alpha   60.78623721
_cell_angle_beta   90.00000000
_cell_angle_gamma   90.00000000
_symmetry_Int_Tables_number   1
_chemical_formula_structural   H2He
_chemical_formula_sum   'H8 He4'
_cell_volume   200.45235974
_cell_formula_units_Z   4
loop_
 _symmetry_equiv_pos_site_id
 _symmetry_equiv_pos_as_xyz
  1  'x, y, z'
loop_
 _atom_site_type_symbol
 _atom_site_label
 _atom_site_symmetry_multiplicity
 _atom_site_fract_x
 _atom_site_fract_y
 _atom_site_fract_z
 _atom_site_occupancy
  H  H0  1  0.24891521  0.33357931  0.33384702  1
  H  H1  1  0.74891521  0.66642069  0.66615298  1
  H  H2  1  0.97348790  0.06121463  0.52898458  1
  H  H3  1  0.47348790  0.93878537  0.47101542  1
  H  H4  1  0.98784291  0.55898201  0.02648716  1
  H  H5  1  0.48784291  0.44101799  0.97351284  1
  H  H6  1  0.03466109  0.56353231  0.52370787  1
  H  H7  1  0.53466109  0.43646769  0.47629213  1
  He  He8  1  0.06133081  0.37757635  0.35224059  1
  He  He9  1  0.56133081  0.62242365  0.64775941  1
  He  He10  1  0.43626208  0.28917998  0.31446399  1
  He  He11  1  0.93626208  0.71082002  0.68553601  1
