# generated using pymatgen
data_HHe4Li
_symmetry_space_group_name_H-M   'P 1'
_cell_length_a   4.45205351
_cell_length_b   4.45205351
_cell_length_c   7.19812157
_cell_angle_alpha   90.00000000
_cell_angle_beta   90.00000000
_cell_angle_gamma   119.99949202
_symmetry_Int_Tables_number   1
_chemical_formula_structural   HHe4Li
_chemical_formula_sum   'H2 He8 Li2'
_cell_volume   123.55854412
_cell_formula_units_Z   2
loop_
 _symmetry_equiv_pos_site_id
 _symmetry_equiv_pos_as_xyz
  1  'x, y, z'
loop_
 _atom_site_type_symbol
 _atom_site_label
 _atom_site_symmetry_multiplicity
 _atom_site_fract_x
 _atom_site_fract_y
 _atom_site_fract_z
 _atom_site_occupancy
  H  H0  1  0.33331163  0.66668837  0.99803919  1
  H  H1  1  0.66668837  0.33331163  0.49803919  1
  He  He2  1  0.33331195  0.66668805  0.22814720  1
  He  He3  1  0.66668805  0.33331195  0.72814720  1
  He  He4  1  0.46180616  0.53819384  0.42319859  1
  He  He5  1  0.46181291  0.92365514  0.42322574  1
  He  He6  1  0.07634486  0.53818709  0.42322574  1
  He  He7  1  0.53819384  0.46180616  0.92319859  1
  He  He8  1  0.53818709  0.07634486  0.92322574  1
  He  He9  1  0.92365514  0.46181291  0.92322574  1
  Li  Li10  1  0.33333935  0.66666065  0.37436354  1
  Li  Li11  1  0.66666065  0.33333935  0.87436354  1
