# generated using pymatgen
data_H4He9
_symmetry_space_group_name_H-M   'P 1'
_cell_length_a   13.41917942
_cell_length_b   9.82689843
_cell_length_c   16.12757861
_cell_angle_alpha   76.66047056
_cell_angle_beta   90.00000000
_cell_angle_gamma   90.00000000
_symmetry_Int_Tables_number   1
_chemical_formula_structural   H4He9
_chemical_formula_sum   'H16 He36'
_cell_volume   2069.34703056
_cell_formula_units_Z   4
loop_
 _symmetry_equiv_pos_site_id
 _symmetry_equiv_pos_as_xyz
  1  'x, y, z'
loop_
 _atom_site_type_symbol
 _atom_site_label
 _atom_site_symmetry_multiplicity
 _atom_site_fract_x
 _atom_site_fract_y
 _atom_site_fract_z
 _atom_site_occupancy
  H  H0  1  0.25000000  0.73646598  0.56775035  1
  H  H1  1  0.75000000  0.26353402  0.43224965  1
  H  H2  1  0.00252066  0.94921587  0.36953826  1
  H  H3  1  0.50252066  0.05078413  0.63046174  1
  H  H4  1  0.99747934  0.05078413  0.63046174  1
  H  H5  1  0.49747934  0.94921587  0.36953826  1
  H  H6  1  0.92686942  0.61917501  0.21215897  1
  H  H7  1  0.42686942  0.38082499  0.78784103  1
  H  H8  1  0.07313058  0.38082499  0.78784103  1
  H  H9  1  0.57313058  0.61917501  0.21215897  1
  H  H10  1  0.90271798  0.67742859  0.90814540  1
  H  H11  1  0.40271798  0.32257141  0.09185460  1
  H  H12  1  0.09728202  0.32257141  0.09185460  1
  H  H13  1  0.59728202  0.67742859  0.90814540  1
  H  H14  1  0.25000000  0.88212309  0.20495702  1
  H  H15  1  0.75000000  0.11787691  0.79504298  1
  He  He16  1  0.13239733  0.76678841  0.78176700  1
  He  He17  1  0.63239733  0.23321159  0.21823300  1
  He  He18  1  0.86760267  0.23321159  0.21823300  1
  He  He19  1  0.36760267  0.76678841  0.78176700  1
  He  He20  1  0.25000000  0.06579206  0.75278514  1
  He  He21  1  0.75000000  0.93420794  0.24721486  1
  He  He22  1  0.13157967  0.75197401  0.02841239  1
  He  He23  1  0.63157967  0.24802599  0.97158761  1
  He  He24  1  0.86842033  0.24802599  0.97158761  1
  He  He25  1  0.36842033  0.75197401  0.02841239  1
  He  He26  1  0.25000000  0.06113485  0.97184506  1
  He  He27  1  0.75000000  0.93886515  0.02815494  1
  He  He28  1  0.05554853  0.00087865  0.87735335  1
  He  He29  1  0.55554853  0.99912135  0.12264665  1
  He  He30  1  0.94445147  0.99912135  0.12264665  1
  He  He31  1  0.44445147  0.00087865  0.87735335  1
  He  He32  1  0.25000000  0.55678028  0.92782010  1
  He  He33  1  0.75000000  0.44321972  0.07217990  1
  He  He34  1  0.25000000  0.16912295  0.30747886  1
  He  He35  1  0.75000000  0.83087705  0.69252114  1
  He  He36  1  0.06261057  0.30967209  0.37539597  1
  He  He37  1  0.56261057  0.69032791  0.62460403  1
  He  He38  1  0.93738943  0.69032791  0.62460403  1
  He  He39  1  0.43738943  0.30967209  0.37539597  1
  He  He40  1  0.25000000  0.13256671  0.50724915  1
  He  He41  1  0.75000000  0.86743329  0.49275085  1
  He  He42  1  0.25000000  0.49608461  0.24014534  1
  He  He43  1  0.75000000  0.50391539  0.75985466  1
  He  He44  1  0.13012291  0.38867192  0.55140808  1
  He  He45  1  0.63012291  0.61132808  0.44859192  1
  He  He46  1  0.86987709  0.61132808  0.44859192  1
  He  He47  1  0.36987709  0.38867192  0.55140808  1
  He  He48  1  0.12845168  0.61724367  0.37818877  1
  He  He49  1  0.62845168  0.38275633  0.62181123  1
  He  He50  1  0.87154832  0.38275633  0.62181123  1
  He  He51  1  0.37154832  0.61724367  0.37818877  1
