# generated using pymatgen
data_HHe2
_symmetry_space_group_name_H-M   'P 1'
_cell_length_a   6.04931126
_cell_length_b   6.04931126
_cell_length_c   9.78908384
_cell_angle_alpha   90.00000000
_cell_angle_beta   90.00000000
_cell_angle_gamma   120.00883834
_symmetry_Int_Tables_number   1
_chemical_formula_structural   HHe2
_chemical_formula_sum   'H4 He8'
_cell_volume   310.20290228
_cell_formula_units_Z   4
loop_
 _symmetry_equiv_pos_site_id
 _symmetry_equiv_pos_as_xyz
  1  'x, y, z'
loop_
 _atom_site_type_symbol
 _atom_site_label
 _atom_site_symmetry_multiplicity
 _atom_site_fract_x
 _atom_site_fract_y
 _atom_site_fract_z
 _atom_site_occupancy
  H  H0  1  0.33331384  0.66668616  0.06302478  1
  H  H1  1  0.66668616  0.33331384  0.56302478  1
  H  H2  1  0.66668616  0.33331384  0.93697522  1
  H  H3  1  0.33331384  0.66668616  0.43697522  1
  He  He4  1  -0.00000000  0.00000000  -0.00000000  1
  He  He5  1  0.00000000  -0.00000000  0.50000000  1
  He  He6  1  0.82923310  0.65846247  0.25000000  1
  He  He7  1  0.34153753  0.17076690  0.25000000  1
  He  He8  1  0.82922399  0.17077601  0.25000000  1
  He  He9  1  0.17076690  0.34153753  0.75000000  1
  He  He10  1  0.65846247  0.82923310  0.75000000  1
  He  He11  1  0.17077601  0.82922399  0.75000000  1
