# generated using pymatgen
data_H2He3
_symmetry_space_group_name_H-M   'P 1'
_cell_length_a   8.33826161
_cell_length_b   5.93420593
_cell_length_c   7.61122794
_cell_angle_alpha   66.53849890
_cell_angle_beta   90.00000000
_cell_angle_gamma   90.00000000
_symmetry_Int_Tables_number   1
_chemical_formula_structural   H2He3
_chemical_formula_sum   'H8 He12'
_cell_volume   345.47562669
_cell_formula_units_Z   4
loop_
 _symmetry_equiv_pos_site_id
 _symmetry_equiv_pos_as_xyz
  1  'x, y, z'
loop_
 _atom_site_type_symbol
 _atom_site_label
 _atom_site_symmetry_multiplicity
 _atom_site_fract_x
 _atom_site_fract_y
 _atom_site_fract_z
 _atom_site_occupancy
  H  H0  1  0.81809445  0.83916240  0.63605481  1
  H  H1  1  0.31809445  0.66083760  0.86394519  1
  H  H2  1  0.18190555  0.16083760  0.36394519  1
  H  H3  1  0.68190555  0.33916240  0.13605481  1
  H  H4  1  0.95985451  0.73689863  0.22320146  1
  H  H5  1  0.45985451  0.76310137  0.27679854  1
  H  H6  1  0.04014549  0.26310137  0.77679854  1
  H  H7  1  0.54014549  0.23689863  0.72320146  1
  He  He8  1  0.69961816  0.92885656  0.29300795  1
  He  He9  1  0.19961816  0.57114344  0.20699205  1
  He  He10  1  0.30038184  0.07114344  0.70699205  1
  He  He11  1  0.80038184  0.42885656  0.79300795  1
  He  He12  1  0.95011764  0.88901221  0.87491610  1
  He  He13  1  0.45011764  0.61098779  0.62508390  1
  He  He14  1  0.04988236  0.11098779  0.12508390  1
  He  He15  1  0.54988236  0.38901221  0.37491610  1
  He  He16  1  0.96943331  0.24305084  0.48863384  1
  He  He17  1  0.46943331  0.25694916  0.01136616  1
  He  He18  1  0.03056669  0.75694916  0.51136616  1
  He  He19  1  0.53056669  0.74305084  0.98863384  1
