# generated using pymatgen
data_HHeLi3
_symmetry_space_group_name_H-M   'P 1'
_cell_length_a   8.13351656
_cell_length_b   8.13351656
_cell_length_c   8.13351656
_cell_angle_alpha   45.83085051
_cell_angle_beta   45.83085051
_cell_angle_gamma   45.83085051
_symmetry_Int_Tables_number   1
_chemical_formula_structural   HHeLi3
_chemical_formula_sum   'H2 He2 Li6'
_cell_volume   252.41568414
_cell_formula_units_Z   2
loop_
 _symmetry_equiv_pos_site_id
 _symmetry_equiv_pos_as_xyz
  1  'x, y, z'
loop_
 _atom_site_type_symbol
 _atom_site_label
 _atom_site_symmetry_multiplicity
 _atom_site_fract_x
 _atom_site_fract_y
 _atom_site_fract_z
 _atom_site_occupancy
  H  H0  1  0.16674744  0.16674744  0.16674744  1
  H  H1  1  0.83325256  0.83325256  0.83325256  1
  He  He2  1  0.44902368  0.44902368  0.44902368  1
  He  He3  1  0.55097632  0.55097632  0.55097632  1
  Li  Li4  1  0.76266448  0.08400822  0.42280915  1
  Li  Li5  1  0.42280915  0.76266448  0.08400822  1
  Li  Li6  1  0.08400822  0.42280915  0.76266448  1
  Li  Li7  1  0.23733552  0.91599178  0.57719085  1
  Li  Li8  1  0.57719085  0.23733552  0.91599178  1
  Li  Li9  1  0.91599178  0.57719085  0.23733552  1
