# generated using pymatgen
data_H2He3Li2
_symmetry_space_group_name_H-M   'P 1'
_cell_length_a   5.59752525
_cell_length_b   5.59752525
_cell_length_c   5.59752525
_cell_angle_alpha   60.82628081
_cell_angle_beta   60.82628081
_cell_angle_gamma   60.82628081
_symmetry_Int_Tables_number   1
_chemical_formula_structural   H2He3Li2
_chemical_formula_sum   'H2 He3 Li2'
_cell_volume   126.32555005
_cell_formula_units_Z   1
loop_
 _symmetry_equiv_pos_site_id
 _symmetry_equiv_pos_as_xyz
  1  'x, y, z'
loop_
 _atom_site_type_symbol
 _atom_site_label
 _atom_site_symmetry_multiplicity
 _atom_site_fract_x
 _atom_site_fract_y
 _atom_site_fract_z
 _atom_site_occupancy
  H  H0  1  0.00000000  0.00000000  0.00000000  1
  H  H1  1  0.50000000  0.50000000  0.50000000  1
  He  He2  1  0.00000000  0.50000000  0.50000000  1
  He  He3  1  0.50000000  0.50000000  0.00000000  1
  He  He4  1  0.50000000  0.00000000  0.50000000  1
  Li  Li5  1  0.78561435  0.78561435  0.78561435  1
  Li  Li6  1  0.21438565  0.21438565  0.21438565  1
