# generated using pymatgen
data_H6He12Li6BeB2
_symmetry_space_group_name_H-M   'P 1'
_cell_length_a   8.38745124
_cell_length_b   8.38745124
_cell_length_c   12.59622566
_cell_angle_alpha   90.00000000
_cell_angle_beta   90.00000000
_cell_angle_gamma   90.00000000
_symmetry_Int_Tables_number   1
_chemical_formula_structural   H6He12Li6BeB2
_chemical_formula_sum   'H12 He24 Li12 Be2 B4'
_cell_volume   886.13614160
_cell_formula_units_Z   2
loop_
 _symmetry_equiv_pos_site_id
 _symmetry_equiv_pos_as_xyz
  1  'x, y, z'
loop_
 _atom_site_type_symbol
 _atom_site_label
 _atom_site_symmetry_multiplicity
 _atom_site_fract_x
 _atom_site_fract_y
 _atom_site_fract_z
 _atom_site_occupancy
  H  H0  1  0.00000000  -0.00000000  0.16041396  1
  H  H1  1  0.50000000  0.50000000  0.33958604  1
  H  H2  1  -0.00000000  -0.00000000  0.83958604  1
  H  H3  1  0.50000000  0.50000000  0.66041396  1
  H  H4  1  0.20085554  0.13469179  0.00000000  1
  H  H5  1  0.79914446  0.86530821  -0.00000000  1
  H  H6  1  0.86530821  0.20085554  0.00000000  1
  H  H7  1  0.13469179  0.79914446  -0.00000000  1
  H  H8  1  0.29914446  0.63469179  0.50000000  1
  H  H9  1  0.70085554  0.36530821  0.50000000  1
  H  H10  1  0.63469179  0.70085554  0.50000000  1
  H  H11  1  0.36530821  0.29914446  0.50000000  1
  He  He12  1  0.62006722  0.10678794  0.14087635  1
  He  He13  1  0.37993278  0.89321206  0.14087635  1
  He  He14  1  0.89321206  0.62006722  0.14087635  1
  He  He15  1  0.10678794  0.37993278  0.14087635  1
  He  He16  1  0.87993278  0.60678794  0.35912365  1
  He  He17  1  0.12006722  0.39321206  0.35912365  1
  He  He18  1  0.60678794  0.12006722  0.35912365  1
  He  He19  1  0.39321206  0.87993278  0.35912365  1
  He  He20  1  0.37993278  0.89321206  0.85912365  1
  He  He21  1  0.62006722  0.10678794  0.85912365  1
  He  He22  1  0.10678794  0.37993278  0.85912365  1
  He  He23  1  0.89321206  0.62006722  0.85912365  1
  He  He24  1  0.12006722  0.39321206  0.64087635  1
  He  He25  1  0.87993278  0.60678794  0.64087635  1
  He  He26  1  0.39321206  0.87993278  0.64087635  1
  He  He27  1  0.60678794  0.12006722  0.64087635  1
  He  He28  1  0.33849740  0.16150260  0.25000000  1
  He  He29  1  0.66150260  0.83849740  0.25000000  1
  He  He30  1  0.83849740  0.33849740  0.25000000  1
  He  He31  1  0.16150260  0.66150260  0.25000000  1
  He  He32  1  0.66150260  0.83849740  0.75000000  1
  He  He33  1  0.33849740  0.16150260  0.75000000  1
  He  He34  1  0.16150260  0.66150260  0.75000000  1
  He  He35  1  0.83849740  0.33849740  0.75000000  1
  Li  Li36  1  0.00000000  -0.00000000  0.25071964  1
  Li  Li37  1  0.50000000  0.50000000  0.24928036  1
  Li  Li38  1  -0.00000000  0.00000000  0.74928036  1
  Li  Li39  1  0.50000000  0.50000000  0.75071964  1
  Li  Li40  1  0.31459849  0.20803306  0.00000000  1
  Li  Li41  1  0.68540151  0.79196694  -0.00000000  1
  Li  Li42  1  0.79196694  0.31459849  -0.00000000  1
  Li  Li43  1  0.20803306  0.68540151  0.00000000  1
  Li  Li44  1  0.18540151  0.70803306  0.50000000  1
  Li  Li45  1  0.81459849  0.29196694  0.50000000  1
  Li  Li46  1  0.70803306  0.81459849  0.50000000  1
  Li  Li47  1  0.29196694  0.18540151  0.50000000  1
  Be  Be48  1  0.00000000  0.00000000  0.00000000  1
  Be  Be49  1  0.50000000  0.50000000  0.50000000  1
  B  B50  1  0.50000000  -0.00000000  0.25000000  1
  B  B51  1  -0.00000000  0.50000000  0.25000000  1
  B  B52  1  0.50000000  -0.00000000  0.75000000  1
  B  B53  1  -0.00000000  0.50000000  0.75000000  1
