# generated using pymatgen
data_H2He
_symmetry_space_group_name_H-M   'P 1'
_cell_length_a   5.34069076
_cell_length_b   5.34048784
_cell_length_c   6.67450920
_cell_angle_alpha   90.00000000
_cell_angle_beta   90.00000000
_cell_angle_gamma   120.00125691
_symmetry_Int_Tables_number   1
_chemical_formula_structural   H2He
_chemical_formula_sum   'H4 He2'
_cell_volume   164.86286008
_cell_formula_units_Z   2
loop_
 _symmetry_equiv_pos_site_id
 _symmetry_equiv_pos_as_xyz
  1  'x, y, z'
loop_
 _atom_site_type_symbol
 _atom_site_label
 _atom_site_symmetry_multiplicity
 _atom_site_fract_x
 _atom_site_fract_y
 _atom_site_fract_z
 _atom_site_occupancy
  H  H0  1  0.00000000  0.00000000  0.00000000  1
  H  H1  1  0.00000000  0.00000000  0.50000000  1
  H  H2  1  0.66668755  0.33337511  0.75000000  1
  H  H3  1  0.33331245  0.66662489  0.25000000  1
  He  He4  1  0.66668726  0.33337451  0.25000000  1
  He  He5  1  0.33331274  0.66662549  0.75000000  1
