# generated using pymatgen
data_H3He
_symmetry_space_group_name_H-M   'P 1'
_cell_length_a   4.33108294
_cell_length_b   6.18965462
_cell_length_c   10.78507759
_cell_angle_alpha   82.51890587
_cell_angle_beta   90.00000000
_cell_angle_gamma   90.00000000
_symmetry_Int_Tables_number   1
_chemical_formula_structural   H3He
_chemical_formula_sum   'H6 He2'
_cell_volume   286.66429233
_cell_formula_units_Z   2
loop_
 _symmetry_equiv_pos_site_id
 _symmetry_equiv_pos_as_xyz
  1  'x, y, z'
loop_
 _atom_site_type_symbol
 _atom_site_label
 _atom_site_symmetry_multiplicity
 _atom_site_fract_x
 _atom_site_fract_y
 _atom_site_fract_z
 _atom_site_occupancy
  H  H0  1  0.25000000  0.23600064  0.56068638  1
  H  H1  1  0.75000000  0.76399936  0.43931362  1
  H  H2  1  0.25000000  0.55478484  0.18048717  1
  H  H3  1  0.75000000  0.44521516  0.81951283  1
  H  H4  1  0.25000000  0.10801723  0.16863192  1
  H  H5  1  0.75000000  0.89198277  0.83136808  1
  He  He6  1  0.25000000  0.71601127  0.65421401  1
  He  He7  1  0.75000000  0.28398873  0.34578599  1
