# generated using pymatgen
data_H8He3
_symmetry_space_group_name_H-M   'P 1'
_cell_length_a   4.97501243
_cell_length_b   4.97501243
_cell_length_c   10.11328674
_cell_angle_alpha   80.04143043
_cell_angle_beta   80.04143043
_cell_angle_gamma   43.11978419
_symmetry_Int_Tables_number   1
_chemical_formula_structural   H8He3
_chemical_formula_sum   'H8 He3'
_cell_volume   168.11043828
_cell_formula_units_Z   1
loop_
 _symmetry_equiv_pos_site_id
 _symmetry_equiv_pos_as_xyz
  1  'x, y, z'
loop_
 _atom_site_type_symbol
 _atom_site_label
 _atom_site_symmetry_multiplicity
 _atom_site_fract_x
 _atom_site_fract_y
 _atom_site_fract_z
 _atom_site_occupancy
  H  H0  1  0.81427783  0.81427783  0.27836430  1
  H  H1  1  0.18572217  0.18572217  0.72163570  1
  H  H2  1  0.72704426  0.72704426  0.90992596  1
  H  H3  1  0.27295574  0.27295574  0.09007404  1
  H  H4  1  0.63152239  0.63152239  0.54151091  1
  H  H5  1  0.36847761  0.36847761  0.45848909  1
  H  H6  1  0.54094012  0.54094012  0.17905975  1
  H  H7  1  0.45905988  0.45905988  0.82094025  1
  He  He8  1  0.00000000  0.00000000  -0.00000000  1
  He  He9  1  0.90463047  0.90463047  0.65979707  1
  He  He10  1  0.09536953  0.09536953  0.34020293  1
