# generated using pymatgen
data_HHe3Li
_symmetry_space_group_name_H-M   'P 1'
_cell_length_a   6.74711725
_cell_length_b   6.74711725
_cell_length_c   5.77239650
_cell_angle_alpha   90.00000000
_cell_angle_beta   90.00000000
_cell_angle_gamma   118.48124754
_symmetry_Int_Tables_number   1
_chemical_formula_structural   HHe3Li
_chemical_formula_sum   'H2 He6 Li2'
_cell_volume   230.97677886
_cell_formula_units_Z   2
loop_
 _symmetry_equiv_pos_site_id
 _symmetry_equiv_pos_as_xyz
  1  'x, y, z'
loop_
 _atom_site_type_symbol
 _atom_site_label
 _atom_site_symmetry_multiplicity
 _atom_site_fract_x
 _atom_site_fract_y
 _atom_site_fract_z
 _atom_site_occupancy
  H  H0  1  0.66223910  0.33776090  0.74874372  1
  H  H1  1  0.33776090  0.66223910  0.24874372  1
  He  He2  1  0.17404102  0.82595898  0.75465581  1
  He  He3  1  0.82595898  0.17404102  0.25465581  1
  He  He4  1  0.68110840  0.84008925  0.73684740  1
  He  He5  1  0.31889160  0.15991075  0.23684740  1
  He  He6  1  0.84008925  0.68110840  0.23684740  1
  He  He7  1  0.15991075  0.31889160  0.73684740  1
  Li  Li8  1  0.97437531  0.02562469  0.01940568  1
  Li  Li9  1  0.02562469  0.97437531  0.51940568  1
