# generated using pymatgen
data_HHeLiBe5
_symmetry_space_group_name_H-M   'P 1'
_cell_length_a   5.86989321
_cell_length_b   7.58941897
_cell_length_c   8.64407442
_cell_angle_alpha   90.00000000
_cell_angle_beta   90.00000000
_cell_angle_gamma   90.00000000
_symmetry_Int_Tables_number   1
_chemical_formula_structural   HHeLiBe5
_chemical_formula_sum   'H4 He4 Li4 Be20'
_cell_volume   385.08555340
_cell_formula_units_Z   4
loop_
 _symmetry_equiv_pos_site_id
 _symmetry_equiv_pos_as_xyz
  1  'x, y, z'
loop_
 _atom_site_type_symbol
 _atom_site_label
 _atom_site_symmetry_multiplicity
 _atom_site_fract_x
 _atom_site_fract_y
 _atom_site_fract_z
 _atom_site_occupancy
  H  H0  1  0.74880658  0.00000000  0.50000000  1
  H  H1  1  0.25119342  0.50000000  0.00000000  1
  H  H2  1  0.25119342  -0.00000000  0.50000000  1
  H  H3  1  0.74880658  0.50000000  -0.00000000  1
  He  He4  1  -0.00000000  0.14193362  0.82765900  1
  He  He5  1  0.00000000  0.85806638  0.17234100  1
  He  He6  1  0.00000000  0.35806638  0.32765900  1
  He  He7  1  -0.00000000  0.64193362  0.67234100  1
  Li  Li8  1  0.50000000  0.38687396  0.64193530  1
  Li  Li9  1  0.50000000  0.61312604  0.35806470  1
  Li  Li10  1  0.50000000  0.11312604  0.14193530  1
  Li  Li11  1  0.50000000  0.88687396  0.85806470  1
  Be  Be12  1  0.70665987  -0.00000000  0.00000000  1
  Be  Be13  1  0.29334013  0.50000000  0.50000000  1
  Be  Be14  1  0.29334013  0.00000000  -0.00000000  1
  Be  Be15  1  0.70665987  0.50000000  0.50000000  1
  Be  Be16  1  0.00000000  0.15578599  0.55015327  1
  Be  Be17  1  0.00000000  0.84421401  0.44984673  1
  Be  Be18  1  0.00000000  0.34421401  0.05015327  1
  Be  Be19  1  0.00000000  0.65578599  0.94984673  1
  Be  Be20  1  0.50000000  0.16188854  0.57245521  1
  Be  Be21  1  0.50000000  0.83811146  0.42754479  1
  Be  Be22  1  0.50000000  0.33811146  0.07245521  1
  Be  Be23  1  0.50000000  0.66188854  0.92754479  1
  Be  Be24  1  0.73876537  0.39778438  0.78509263  1
  Be  Be25  1  0.73876537  0.60221562  0.21490737  1
  Be  Be26  1  0.26123463  0.10221562  0.28509263  1
  Be  Be27  1  0.26123463  0.89778438  0.71490737  1
  Be  Be28  1  0.26123463  0.60221562  0.21490737  1
  Be  Be29  1  0.26123463  0.39778438  0.78509263  1
  Be  Be30  1  0.73876537  0.89778438  0.71490737  1
  Be  Be31  1  0.73876537  0.10221562  0.28509263  1
