# generated using pymatgen
data_H11He(LiBe4)4
_symmetry_space_group_name_H-M   'P 1'
_cell_length_a   10.53471790
_cell_length_b   10.53471790
_cell_length_c   10.53471790
_cell_angle_alpha   135.51971594
_cell_angle_beta   135.51971594
_cell_angle_gamma   64.72374235
_symmetry_Int_Tables_number   1
_chemical_formula_structural   H11He(LiBe4)4
_chemical_formula_sum   'H11 He1 Li4 Be16'
_cell_volume   565.88805093
_cell_formula_units_Z   1
loop_
 _symmetry_equiv_pos_site_id
 _symmetry_equiv_pos_as_xyz
  1  'x, y, z'
loop_
 _atom_site_type_symbol
 _atom_site_label
 _atom_site_symmetry_multiplicity
 _atom_site_fract_x
 _atom_site_fract_y
 _atom_site_fract_z
 _atom_site_occupancy
  H  H0  1  0.75000000  0.25000000  0.50000000  1
  H  H1  1  0.25000000  0.75000000  0.50000000  1
  H  H2  1  0.50000000  0.50000000  -0.00000000  1
  H  H3  1  0.70850955  0.70850955  -0.00000000  1
  H  H4  1  0.29149045  0.29149045  0.00000000  1
  H  H5  1  0.31697252  0.31697252  0.38927669  1
  H  H6  1  0.92769583  0.92769583  0.61072331  1
  H  H7  1  0.07230417  0.68302748  0.00000000  1
  H  H8  1  0.68302748  0.07230417  0.00000000  1
  H  H9  1  0.50000000  0.00000000  0.50000000  1
  H  H10  1  -0.00000000  0.50000000  0.50000000  1
  He  He11  1  0.00000000  0.00000000  0.00000000  1
  Li  Li12  1  0.86698777  0.38005607  0.00000000  1
  Li  Li13  1  0.38005607  0.86698777  0.00000000  1
  Li  Li14  1  0.13301223  0.13301223  0.51306830  1
  Li  Li15  1  0.61994393  0.61994393  0.48693170  1
  Be  Be16  1  0.33497802  0.64543355  0.75272280  1
  Be  Be17  1  0.89271075  0.58225523  0.24727720  1
  Be  Be18  1  0.41774477  0.66502198  0.31045553  1
  Be  Be19  1  0.35456645  0.10728925  0.68954447  1
  Be  Be20  1  0.10728925  0.35456645  0.68954447  1
  Be  Be21  1  0.66502198  0.41774477  0.31045553  1
  Be  Be22  1  0.64543355  0.33497802  0.75272280  1
  Be  Be23  1  0.58225523  0.89271075  0.24727720  1
  Be  Be24  1  0.91063966  0.20265607  0.00000000  1
  Be  Be25  1  0.20265607  0.91063966  0.00000000  1
  Be  Be26  1  0.08936034  0.08936034  0.29201640  1
  Be  Be27  1  0.79734393  0.79734393  0.70798360  1
  Be  Be28  1  0.58924707  0.58924707  0.60443448  1
  Be  Be29  1  0.98481258  0.98481258  0.39556552  1
  Be  Be30  1  0.01518742  0.41075293  -0.00000000  1
  Be  Be31  1  0.41075293  0.01518742  0.00000000  1
