# generated using pymatgen
data_HHe3Li3
_symmetry_space_group_name_H-M   'P 1'
_cell_length_a   5.79875303
_cell_length_b   12.80738419
_cell_length_c   22.32842959
_cell_angle_alpha   90.00000000
_cell_angle_beta   90.00000000
_cell_angle_gamma   90.00000000
_symmetry_Int_Tables_number   1
_chemical_formula_structural   HHe3Li3
_chemical_formula_sum   'H8 He24 Li24'
_cell_volume   1658.26230555
_cell_formula_units_Z   8
loop_
 _symmetry_equiv_pos_site_id
 _symmetry_equiv_pos_as_xyz
  1  'x, y, z'
loop_
 _atom_site_type_symbol
 _atom_site_label
 _atom_site_symmetry_multiplicity
 _atom_site_fract_x
 _atom_site_fract_y
 _atom_site_fract_z
 _atom_site_occupancy
  H  H0  1  0.45692496  0.95217261  0.08781947  1
  H  H1  1  0.04307504  0.04782739  0.58781947  1
  H  H2  1  0.54307504  0.45217261  0.41218053  1
  H  H3  1  0.95692496  0.54782739  0.91218053  1
  H  H4  1  0.54307504  0.04782739  0.91218053  1
  H  H5  1  0.95692496  0.95217261  0.41218053  1
  H  H6  1  0.45692496  0.54782739  0.58781947  1
  H  H7  1  0.04307504  0.45217261  0.08781947  1
  He  He8  1  0.38457071  0.12642315  0.09162180  1
  He  He9  1  0.11542929  0.87357685  0.59162180  1
  He  He10  1  0.61542929  0.62642315  0.40837820  1
  He  He11  1  0.88457071  0.37357685  0.90837820  1
  He  He12  1  0.61542929  0.87357685  0.90837820  1
  He  He13  1  0.88457071  0.12642315  0.40837820  1
  He  He14  1  0.38457071  0.37357685  0.59162180  1
  He  He15  1  0.11542929  0.62642315  0.09162180  1
  He  He16  1  0.11167013  0.39808192  0.18347607  1
  He  He17  1  0.38832987  0.60191808  0.68347607  1
  He  He18  1  0.88832987  0.89808192  0.31652393  1
  He  He19  1  0.61167013  0.10191808  0.81652393  1
  He  He20  1  0.88832987  0.60191808  0.81652393  1
  He  He21  1  0.61167013  0.39808192  0.31652393  1
  He  He22  1  0.11167013  0.10191808  0.68347607  1
  He  He23  1  0.38832987  0.89808192  0.18347607  1
  He  He24  1  0.85193656  0.94791785  0.08596231  1
  He  He25  1  0.64806344  0.05208215  0.58596231  1
  He  He26  1  0.14806344  0.44791785  0.41403769  1
  He  He27  1  0.35193656  0.55208215  0.91403769  1
  He  He28  1  0.14806344  0.05208215  0.91403769  1
  He  He29  1  0.35193656  0.94791785  0.41403769  1
  He  He30  1  0.85193656  0.55208215  0.58596231  1
  He  He31  1  0.64806344  0.44791785  0.08596231  1
  Li  Li32  1  0.58032216  0.21802394  0.68288219  1
  Li  Li33  1  0.91967784  0.78197606  0.18288219  1
  Li  Li34  1  0.41967784  0.71802394  0.81711781  1
  Li  Li35  1  0.08032216  0.28197606  0.31711781  1
  Li  Li36  1  0.41967784  0.78197606  0.31711781  1
  Li  Li37  1  0.08032216  0.21802394  0.81711781  1
  Li  Li38  1  0.58032216  0.28197606  0.18288219  1
  Li  Li39  1  0.91967784  0.71802394  0.68288219  1
  Li  Li40  1  0.07129940  0.66084605  0.47694013  1
  Li  Li41  1  0.42870060  0.33915395  0.97694013  1
  Li  Li42  1  0.92870060  0.16084605  0.02305987  1
  Li  Li43  1  0.57129940  0.83915395  0.52305987  1
  Li  Li44  1  0.92870060  0.33915395  0.52305987  1
  Li  Li45  1  0.57129940  0.66084605  0.02305987  1
  Li  Li46  1  0.07129940  0.83915395  0.97694013  1
  Li  Li47  1  0.42870060  0.16084605  0.47694013  1
  Li  Li48  1  0.04752855  0.43131784  0.69145760  1
  Li  Li49  1  0.45247145  0.56868216  0.19145760  1
  Li  Li50  1  0.95247145  0.93131784  0.80854240  1
  Li  Li51  1  0.54752855  0.06868216  0.30854240  1
  Li  Li52  1  0.95247145  0.56868216  0.30854240  1
  Li  Li53  1  0.54752855  0.43131784  0.80854240  1
  Li  Li54  1  0.04752855  0.06868216  0.19145760  1
  Li  Li55  1  0.45247145  0.93131784  0.69145760  1
