# generated using pymatgen
data_H3He2LiBe13B3
_symmetry_space_group_name_H-M   'P 1'
_cell_length_a   5.60988561
_cell_length_b   10.11979359
_cell_length_c   16.36252131
_cell_angle_alpha   90.00000000
_cell_angle_beta   90.00000000
_cell_angle_gamma   90.00000000
_symmetry_Int_Tables_number   1
_chemical_formula_structural   H3He2LiBe13B3
_chemical_formula_sum   'H12 He8 Li4 Be52 B12'
_cell_volume   928.91480654
_cell_formula_units_Z   4
loop_
 _symmetry_equiv_pos_site_id
 _symmetry_equiv_pos_as_xyz
  1  'x, y, z'
loop_
 _atom_site_type_symbol
 _atom_site_label
 _atom_site_symmetry_multiplicity
 _atom_site_fract_x
 _atom_site_fract_y
 _atom_site_fract_z
 _atom_site_occupancy
  H  H0  1  0.00334032  0.81030163  0.24951709  1
  H  H1  1  0.99665968  0.31030163  0.25048291  1
  H  H2  1  0.50334032  0.18969837  0.75048291  1
  H  H3  1  0.49665968  0.68969837  0.74951709  1
  H  H4  1  0.99665968  0.18969837  0.75048291  1
  H  H5  1  0.00334032  0.68969837  0.74951709  1
  H  H6  1  0.49665968  0.81030163  0.24951709  1
  H  H7  1  0.50334032  0.31030163  0.25048291  1
  H  H8  1  0.25000000  0.69918689  0.10623103  1
  H  H9  1  0.75000000  0.19918689  0.39376897  1
  H  H10  1  0.75000000  0.30081311  0.89376897  1
  H  H11  1  0.25000000  0.80081311  0.60623103  1
  He  He12  1  0.75000000  0.56391932  0.36711279  1
  He  He13  1  0.25000000  0.06391932  0.13288721  1
  He  He14  1  0.25000000  0.43608068  0.63288721  1
  He  He15  1  0.75000000  0.93608068  0.86711279  1
  He  He16  1  0.75000000  0.88370065  0.45103695  1
  He  He17  1  0.25000000  0.38370065  0.04896305  1
  He  He18  1  0.25000000  0.11629935  0.54896305  1
  He  He19  1  0.75000000  0.61629935  0.95103695  1
  Li  Li20  1  0.75000000  0.02328334  0.26939399  1
  Li  Li21  1  0.25000000  0.52328334  0.23060601  1
  Li  Li22  1  0.25000000  0.97671666  0.73060601  1
  Li  Li23  1  0.75000000  0.47671666  0.76939399  1
  Be  Be24  1  0.00225301  0.85340242  0.13037932  1
  Be  Be25  1  0.99774699  0.35340242  0.36962068  1
  Be  Be26  1  0.50225301  0.14659758  0.86962068  1
  Be  Be27  1  0.49774699  0.64659758  0.63037932  1
  Be  Be28  1  0.99774699  0.14659758  0.86962068  1
  Be  Be29  1  0.00225301  0.64659758  0.63037932  1
  Be  Be30  1  0.49774699  0.85340242  0.13037932  1
  Be  Be31  1  0.50225301  0.35340242  0.36962068  1
  Be  Be32  1  0.98753962  0.56998603  0.10132005  1
  Be  Be33  1  0.01246038  0.06998603  0.39867995  1
  Be  Be34  1  0.48753962  0.43001397  0.89867995  1
  Be  Be35  1  0.51246038  0.93001397  0.60132005  1
  Be  Be36  1  0.01246038  0.43001397  0.89867995  1
  Be  Be37  1  0.98753962  0.93001397  0.60132005  1
  Be  Be38  1  0.51246038  0.56998603  0.10132005  1
  Be  Be39  1  0.48753962  0.06998603  0.39867995  1
  Be  Be40  1  0.00927424  0.75563309  0.35909878  1
  Be  Be41  1  0.99072576  0.25563309  0.14090122  1
  Be  Be42  1  0.50927424  0.24436691  0.64090122  1
  Be  Be43  1  0.49072576  0.74436691  0.85909878  1
  Be  Be44  1  0.99072576  0.24436691  0.64090122  1
  Be  Be45  1  0.00927424  0.74436691  0.85909878  1
  Be  Be46  1  0.49072576  0.75563309  0.35909878  1
  Be  Be47  1  0.50927424  0.25563309  0.14090122  1
  Be  Be48  1  0.25000000  0.69876076  0.21882812  1
  Be  Be49  1  0.75000000  0.19876076  0.28117188  1
  Be  Be50  1  0.75000000  0.30123924  0.78117188  1
  Be  Be51  1  0.25000000  0.80123924  0.71882812  1
  Be  Be52  1  0.75000000  0.68813481  0.22809779  1
  Be  Be53  1  0.25000000  0.18813481  0.27190221  1
  Be  Be54  1  0.25000000  0.31186519  0.77190221  1
  Be  Be55  1  0.75000000  0.81186519  0.72809779  1
  Be  Be56  1  0.25000000  0.94004954  0.27179646  1
  Be  Be57  1  0.75000000  0.44004954  0.22820354  1
  Be  Be58  1  0.75000000  0.05995046  0.72820354  1
  Be  Be59  1  0.25000000  0.55995046  0.77179646  1
  Be  Be60  1  0.75000000  0.83592605  0.99103099  1
  Be  Be61  1  0.25000000  0.33592605  0.50896901  1
  Be  Be62  1  0.25000000  0.16407395  0.00896901  1
  Be  Be63  1  0.75000000  0.66407395  0.49103099  1
  Be  Be64  1  0.25000000  0.70604300  0.99694345  1
  Be  Be65  1  0.75000000  0.20604300  0.50305655  1
  Be  Be66  1  0.75000000  0.29395700  0.00305655  1
  Be  Be67  1  0.25000000  0.79395700  0.49694345  1
  Be  Be68  1  0.25000000  0.55588347  0.42042169  1
  Be  Be69  1  0.75000000  0.05588347  0.07957831  1
  Be  Be70  1  0.75000000  0.44411653  0.57957831  1
  Be  Be71  1  0.25000000  0.94411653  0.92042169  1
  Be  Be72  1  0.75000000  0.92509910  0.26745940  1
  Be  Be73  1  0.25000000  0.42509910  0.23254060  1
  Be  Be74  1  0.25000000  0.07490090  0.73254060  1
  Be  Be75  1  0.75000000  0.57490090  0.76745940  1
  B  B76  1  0.75000000  0.89298916  0.08161590  1
  B  B77  1  0.25000000  0.39298916  0.41838410  1
  B  B78  1  0.25000000  0.10701084  0.91838410  1
  B  B79  1  0.75000000  0.60701084  0.58161590  1
  B  B80  1  0.25000000  0.71748913  0.41097878  1
  B  B81  1  0.75000000  0.21748913  0.08902122  1
  B  B82  1  0.75000000  0.28251087  0.58902122  1
  B  B83  1  0.25000000  0.78251087  0.91097878  1
  B  B84  1  0.75000000  0.56484828  0.16007789  1
  B  B85  1  0.25000000  0.06484828  0.33992211  1
  B  B86  1  0.25000000  0.43515172  0.83992211  1
  B  B87  1  0.75000000  0.93515172  0.66007789  1
