# generated using pymatgen
data_H2HeLiBe6
_symmetry_space_group_name_H-M   'P 1'
_cell_length_a   6.07693759
_cell_length_b   6.07693759
_cell_length_c   6.07693759
_cell_angle_alpha   47.16193104
_cell_angle_beta   47.16193104
_cell_angle_gamma   47.16193104
_symmetry_Int_Tables_number   1
_chemical_formula_structural   H2HeLiBe6
_chemical_formula_sum   'H2 He1 Li1 Be6'
_cell_volume   110.34279566
_cell_formula_units_Z   1
loop_
 _symmetry_equiv_pos_site_id
 _symmetry_equiv_pos_as_xyz
  1  'x, y, z'
loop_
 _atom_site_type_symbol
 _atom_site_label
 _atom_site_symmetry_multiplicity
 _atom_site_fract_x
 _atom_site_fract_y
 _atom_site_fract_z
 _atom_site_occupancy
  H  H0  1  0.24297528  0.24297528  0.24297528  1
  H  H1  1  0.75702472  0.75702472  0.75702472  1
  He  He2  1  -0.00000000  0.00000000  0.00000000  1
  Li  Li3  1  0.50000000  0.50000000  0.50000000  1
  Be  Be4  1  0.96181957  0.27777143  0.49221187  1
  Be  Be5  1  0.49221187  0.96181957  0.27777143  1
  Be  Be6  1  0.27777143  0.49221187  0.96181957  1
  Be  Be7  1  0.03818043  0.72222857  0.50778813  1
  Be  Be8  1  0.50778813  0.03818043  0.72222857  1
  Be  Be9  1  0.72222857  0.50778813  0.03818043  1
