# generated using pymatgen
data_HHe2Li
_symmetry_space_group_name_H-M   'P 1'
_cell_length_a   7.91234071
_cell_length_b   7.91234071
_cell_length_c   7.91234071
_cell_angle_alpha   27.94634860
_cell_angle_beta   27.94634860
_cell_angle_gamma   27.94634860
_symmetry_Int_Tables_number   1
_chemical_formula_structural   HHe2Li
_chemical_formula_sum   'H1 He2 Li1'
_cell_volume   96.08363122
_cell_formula_units_Z   1
loop_
 _symmetry_equiv_pos_site_id
 _symmetry_equiv_pos_as_xyz
  1  'x, y, z'
loop_
 _atom_site_type_symbol
 _atom_site_label
 _atom_site_symmetry_multiplicity
 _atom_site_fract_x
 _atom_site_fract_y
 _atom_site_fract_z
 _atom_site_occupancy
  H  H0  1  0.81877737  0.81877737  0.81877737  1
  He  He1  1  0.37943782  0.37943782  0.37943782  1
  He  He2  1  0.59335913  0.59335913  0.59335913  1
  Li  Li3  1  0.98642568  0.98642568  0.98642568  1
