# generated using pymatgen
data_H3He12Li5
_symmetry_space_group_name_H-M   'P 1'
_cell_length_a   9.26380260
_cell_length_b   9.26380260
_cell_length_c   9.26380260
_cell_angle_alpha   109.46424494
_cell_angle_beta   109.46424494
_cell_angle_gamma   109.46424494
_symmetry_Int_Tables_number   1
_chemical_formula_structural   H3He12Li5
_chemical_formula_sum   'H6 He24 Li10'
_cell_volume   612.15034705
_cell_formula_units_Z   2
loop_
 _symmetry_equiv_pos_site_id
 _symmetry_equiv_pos_as_xyz
  1  'x, y, z'
loop_
 _atom_site_type_symbol
 _atom_site_label
 _atom_site_symmetry_multiplicity
 _atom_site_fract_x
 _atom_site_fract_y
 _atom_site_fract_z
 _atom_site_occupancy
  H  H0  1  0.49812213  0.24784280  0.74754369  1
  H  H1  1  0.74754369  0.49812213  0.24784280  1
  H  H2  1  0.24784280  0.74754369  0.49812213  1
  H  H3  1  0.74754369  0.24784280  0.49812213  1
  H  H4  1  0.24784280  0.49812213  0.74754369  1
  H  H5  1  0.49812213  0.74754369  0.24784280  1
  He  He6  1  0.78973996  0.49144261  0.49144261  1
  He  He7  1  0.49144261  0.78973996  0.49144261  1
  He  He8  1  0.49144261  0.49144261  0.78973996  1
  He  He9  1  0.69981848  0.69981848  0.20520083  1
  He  He10  1  0.20520083  0.69981848  0.69981848  1
  He  He11  1  0.69981848  0.20520083  0.69981848  1
  He  He12  1  0.29658296  0.50416784  0.99744349  1
  He  He13  1  0.99744349  0.29658296  0.50416784  1
  He  He14  1  0.50416784  0.99744349  0.29658296  1
  He  He15  1  0.99744349  0.50416784  0.29658296  1
  He  He16  1  0.50416784  0.29658296  0.99744349  1
  He  He17  1  0.29658296  0.99744349  0.50416784  1
  He  He18  1  0.47481316  0.47481316  0.27198292  1
  He  He19  1  0.27198292  0.47481316  0.47481316  1
  He  He20  1  0.47481316  0.27198292  0.47481316  1
  He  He21  1  0.20015924  0.20015924  0.72315556  1
  He  He22  1  0.72315556  0.20015924  0.20015924  1
  He  He23  1  0.20015924  0.72315556  0.20015924  1
  He  He24  1  0.99727959  0.52093357  0.79529196  1
  He  He25  1  0.79529196  0.99727959  0.52093357  1
  He  He26  1  0.52093357  0.79529196  0.99727959  1
  He  He27  1  0.79529196  0.52093357  0.99727959  1
  He  He28  1  0.52093357  0.99727959  0.79529196  1
  He  He29  1  0.99727959  0.79529196  0.52093357  1
  Li  Li30  1  0.28187165  0.28187165  0.99712554  1
  Li  Li31  1  0.99712554  0.28187165  0.28187165  1
  Li  Li32  1  0.28187165  0.99712554  0.28187165  1
  Li  Li33  1  0.71360127  0.71360127  0.99709002  1
  Li  Li34  1  0.99709002  0.71360127  0.71360127  1
  Li  Li35  1  0.71360127  0.99709002  0.71360127  1
  Li  Li36  1  0.99765586  0.99765586  0.48089080  1
  Li  Li37  1  0.48089080  0.99765586  0.99765586  1
  Li  Li38  1  0.99765586  0.48089080  0.99765586  1
  Li  Li39  1  0.51437374  0.51437374  0.51437374  1
