# generated using pymatgen
data_H4He9Li2Be
_symmetry_space_group_name_H-M   'P 1'
_cell_length_a   9.18205744
_cell_length_b   9.18205744
_cell_length_c   7.81732170
_cell_angle_alpha   90.00000000
_cell_angle_beta   90.00000000
_cell_angle_gamma   90.00000000
_symmetry_Int_Tables_number   1
_chemical_formula_structural   H4He9Li2Be
_chemical_formula_sum   'H16 He36 Li8 Be4'
_cell_volume   659.07978978
_cell_formula_units_Z   4
loop_
 _symmetry_equiv_pos_site_id
 _symmetry_equiv_pos_as_xyz
  1  'x, y, z'
loop_
 _atom_site_type_symbol
 _atom_site_label
 _atom_site_symmetry_multiplicity
 _atom_site_fract_x
 _atom_site_fract_y
 _atom_site_fract_z
 _atom_site_occupancy
  H  H0  1  0.21410274  0.58481679  0.45256898  1
  H  H1  1  0.28589726  0.91518321  0.45256898  1
  H  H2  1  0.91518321  0.21410274  0.45256898  1
  H  H3  1  0.58481679  0.28589726  0.45256898  1
  H  H4  1  0.78589726  0.08481679  0.04743102  1
  H  H5  1  0.71410274  0.41518321  0.04743102  1
  H  H6  1  0.08481679  0.71410274  0.04743102  1
  H  H7  1  0.41518321  0.78589726  0.04743102  1
  H  H8  1  0.78589726  0.41518321  0.54743102  1
  H  H9  1  0.71410274  0.08481679  0.54743102  1
  H  H10  1  0.08481679  0.78589726  0.54743102  1
  H  H11  1  0.41518321  0.71410274  0.54743102  1
  H  H12  1  0.21410274  0.91518321  0.95256898  1
  H  H13  1  0.28589726  0.58481679  0.95256898  1
  H  H14  1  0.91518321  0.28589726  0.95256898  1
  H  H15  1  0.58481679  0.21410274  0.95256898  1
  He  He16  1  0.11493086  0.08004233  0.24366317  1
  He  He17  1  0.38506914  0.41995767  0.24366317  1
  He  He18  1  0.41995767  0.11493086  0.24366317  1
  He  He19  1  0.08004233  0.38506914  0.24366317  1
  He  He20  1  0.88506914  0.58004233  0.25633683  1
  He  He21  1  0.61493086  0.91995767  0.25633683  1
  He  He22  1  0.58004233  0.61493086  0.25633683  1
  He  He23  1  0.91995767  0.88506914  0.25633683  1
  He  He24  1  0.88506914  0.91995767  0.75633683  1
  He  He25  1  0.61493086  0.58004233  0.75633683  1
  He  He26  1  0.58004233  0.88506914  0.75633683  1
  He  He27  1  0.91995767  0.61493086  0.75633683  1
  He  He28  1  0.11493086  0.41995767  0.74366317  1
  He  He29  1  0.38506914  0.08004233  0.74366317  1
  He  He30  1  0.41995767  0.38506914  0.74366317  1
  He  He31  1  0.08004233  0.11493086  0.74366317  1
  He  He32  1  0.88252171  0.12049529  0.08544112  1
  He  He33  1  0.61747829  0.37950471  0.08544112  1
  He  He34  1  0.37950471  0.88252171  0.08544112  1
  He  He35  1  0.12049529  0.61747829  0.08544112  1
  He  He36  1  0.11747829  0.62049529  0.41455888  1
  He  He37  1  0.38252171  0.87950471  0.41455888  1
  He  He38  1  0.62049529  0.38252171  0.41455888  1
  He  He39  1  0.87950471  0.11747829  0.41455888  1
  He  He40  1  0.11747829  0.87950471  0.91455888  1
  He  He41  1  0.38252171  0.62049529  0.91455888  1
  He  He42  1  0.62049529  0.11747829  0.91455888  1
  He  He43  1  0.87950471  0.38252171  0.91455888  1
  He  He44  1  0.88252171  0.37950471  0.58544112  1
  He  He45  1  0.61747829  0.12049529  0.58544112  1
  He  He46  1  0.37950471  0.61747829  0.58544112  1
  He  He47  1  0.12049529  0.88252171  0.58544112  1
  He  He48  1  0.25000000  0.25000000  0.99342851  1
  He  He49  1  0.75000000  0.75000000  0.50657149  1
  He  He50  1  0.75000000  0.75000000  0.00657149  1
  He  He51  1  0.25000000  0.25000000  0.49342851  1
  Li  Li52  1  0.95371963  0.04628037  0.25000000  1
  Li  Li53  1  0.54628037  0.45371963  0.25000000  1
  Li  Li54  1  0.45371963  0.95371963  0.25000000  1
  Li  Li55  1  0.04628037  0.54628037  0.25000000  1
  Li  Li56  1  0.04628037  0.95371963  0.75000000  1
  Li  Li57  1  0.45371963  0.54628037  0.75000000  1
  Li  Li58  1  0.54628037  0.04628037  0.75000000  1
  Li  Li59  1  0.95371963  0.45371963  0.75000000  1
  Be  Be60  1  0.25000000  0.25000000  0.20563941  1
  Be  Be61  1  0.75000000  0.75000000  0.29436059  1
  Be  Be62  1  0.75000000  0.75000000  0.79436059  1
  Be  Be63  1  0.25000000  0.25000000  0.70563941  1
