# generated using pymatgen
data_H2He2(Li4Be)3
_symmetry_space_group_name_H-M   'P 1'
_cell_length_a   10.47600601
_cell_length_b   10.47600601
_cell_length_c   10.47600601
_cell_angle_alpha   90.00000000
_cell_angle_beta   90.00000000
_cell_angle_gamma   90.00000000
_symmetry_Int_Tables_number   1
_chemical_formula_structural   H2He2(Li4Be)3
_chemical_formula_sum   'H8 He8 Li48 Be12'
_cell_volume   1149.70710734
_cell_formula_units_Z   4
loop_
 _symmetry_equiv_pos_site_id
 _symmetry_equiv_pos_as_xyz
  1  'x, y, z'
loop_
 _atom_site_type_symbol
 _atom_site_label
 _atom_site_symmetry_multiplicity
 _atom_site_fract_x
 _atom_site_fract_y
 _atom_site_fract_z
 _atom_site_occupancy
  H  H0  1  0.57687261  0.57687261  0.57687261  1
  H  H1  1  0.92312739  0.42312739  0.07687261  1
  H  H2  1  0.42312739  0.07687261  0.92312739  1
  H  H3  1  0.07687261  0.92312739  0.42312739  1
  H  H4  1  0.83401818  0.83401818  0.83401818  1
  H  H5  1  0.66598182  0.16598182  0.33401818  1
  H  H6  1  0.16598182  0.33401818  0.66598182  1
  H  H7  1  0.33401818  0.66598182  0.16598182  1
  He  He8  1  0.06347750  0.06347750  0.06347750  1
  He  He9  1  0.43652250  0.93652250  0.56347750  1
  He  He10  1  0.93652250  0.56347750  0.43652250  1
  He  He11  1  0.56347750  0.43652250  0.93652250  1
  He  He12  1  0.30541600  0.30541600  0.30541600  1
  He  He13  1  0.19458400  0.69458400  0.80541600  1
  He  He14  1  0.69458400  0.80541600  0.19458400  1
  He  He15  1  0.80541600  0.19458400  0.69458400  1
  Li  Li16  1  0.34677461  0.25632904  0.56819428  1
  Li  Li17  1  0.15322539  0.74367096  0.06819428  1
  Li  Li18  1  0.65322539  0.75632904  0.93180572  1
  Li  Li19  1  0.84677461  0.24367096  0.43180572  1
  Li  Li20  1  0.56819428  0.34677461  0.25632904  1
  Li  Li21  1  0.06819428  0.15322539  0.74367096  1
  Li  Li22  1  0.93180572  0.65322539  0.75632904  1
  Li  Li23  1  0.43180572  0.84677461  0.24367096  1
  Li  Li24  1  0.25632904  0.56819428  0.34677461  1
  Li  Li25  1  0.74367096  0.06819428  0.15322539  1
  Li  Li26  1  0.75632904  0.93180572  0.65322539  1
  Li  Li27  1  0.24367096  0.43180572  0.84677461  1
  Li  Li28  1  0.52773906  0.57240971  0.22006420  1
  Li  Li29  1  0.97226094  0.42759029  0.72006420  1
  Li  Li30  1  0.47226094  0.07240971  0.27993580  1
  Li  Li31  1  0.02773906  0.92759029  0.77993580  1
  Li  Li32  1  0.22006420  0.52773906  0.57240971  1
  Li  Li33  1  0.72006420  0.97226094  0.42759029  1
  Li  Li34  1  0.27993580  0.47226094  0.07240971  1
  Li  Li35  1  0.77993580  0.02773906  0.92759029  1
  Li  Li36  1  0.57240971  0.22006420  0.52773906  1
  Li  Li37  1  0.42759029  0.72006420  0.97226094  1
  Li  Li38  1  0.07240971  0.27993580  0.47226094  1
  Li  Li39  1  0.92759029  0.77993580  0.02773906  1
  Li  Li40  1  0.67154048  0.50716591  0.39227806  1
  Li  Li41  1  0.82845952  0.49283409  0.89227806  1
  Li  Li42  1  0.32845952  0.00716591  0.10772194  1
  Li  Li43  1  0.17154048  0.99283409  0.60772194  1
  Li  Li44  1  0.39227806  0.67154048  0.50716591  1
  Li  Li45  1  0.89227806  0.82845952  0.49283409  1
  Li  Li46  1  0.10772194  0.32845952  0.00716591  1
  Li  Li47  1  0.60772194  0.17154048  0.99283409  1
  Li  Li48  1  0.50716591  0.39227806  0.67154048  1
  Li  Li49  1  0.49283409  0.89227806  0.82845952  1
  Li  Li50  1  0.00716591  0.10772194  0.32845952  1
  Li  Li51  1  0.99283409  0.60772194  0.17154048  1
  Li  Li52  1  0.17056905  0.73400824  0.48751197  1
  Li  Li53  1  0.32943095  0.26599176  0.98751197  1
  Li  Li54  1  0.82943095  0.23400824  0.01248803  1
  Li  Li55  1  0.67056905  0.76599176  0.51248803  1
  Li  Li56  1  0.48751197  0.17056905  0.73400824  1
  Li  Li57  1  0.98751197  0.32943095  0.26599176  1
  Li  Li58  1  0.01248803  0.82943095  0.23400824  1
  Li  Li59  1  0.51248803  0.67056905  0.76599176  1
  Li  Li60  1  0.73400824  0.48751197  0.17056905  1
  Li  Li61  1  0.26599176  0.98751197  0.32943095  1
  Li  Li62  1  0.23400824  0.01248803  0.82943095  1
  Li  Li63  1  0.76599176  0.51248803  0.67056905  1
  Be  Be64  1  0.62508330  0.47812049  0.26067270  1
  Be  Be65  1  0.87491670  0.52187951  0.76067270  1
  Be  Be66  1  0.37491670  0.97812049  0.23932730  1
  Be  Be67  1  0.12508330  0.02187951  0.73932730  1
  Be  Be68  1  0.26067270  0.62508330  0.47812049  1
  Be  Be69  1  0.76067270  0.87491670  0.52187951  1
  Be  Be70  1  0.23932730  0.37491670  0.97812049  1
  Be  Be71  1  0.73932730  0.12508330  0.02187951  1
  Be  Be72  1  0.47812049  0.26067270  0.62508330  1
  Be  Be73  1  0.52187951  0.76067270  0.87491670  1
  Be  Be74  1  0.97812049  0.23932730  0.37491670  1
  Be  Be75  1  0.02187951  0.73932730  0.12508330  1
