# generated using pymatgen
data_HHeLi
_symmetry_space_group_name_H-M   'P 1'
_cell_length_a   5.90103058
_cell_length_b   5.90103058
_cell_length_c   3.73994438
_cell_angle_alpha   90.00000000
_cell_angle_beta   90.00000000
_cell_angle_gamma   120.04255265
_symmetry_Int_Tables_number   1
_chemical_formula_structural   HHeLi
_chemical_formula_sum   'H3 He3 Li3'
_cell_volume   112.73664995
_cell_formula_units_Z   3
loop_
 _symmetry_equiv_pos_site_id
 _symmetry_equiv_pos_as_xyz
  1  'x, y, z'
loop_
 _atom_site_type_symbol
 _atom_site_label
 _atom_site_symmetry_multiplicity
 _atom_site_fract_x
 _atom_site_fract_y
 _atom_site_fract_z
 _atom_site_occupancy
  H  H0  1  0.00014800  0.00014800  0.50000000  1
  H  H1  1  0.33326430  0.66677840  0.00000000  1
  H  H2  1  0.66677840  0.33326430  0.00000000  1
  He  He3  1  0.57812937  0.99902688  0.50000000  1
  He  He4  1  0.99902688  0.57812937  0.50000000  1
  He  He5  1  0.42208821  0.42208821  0.50000000  1
  Li  Li6  1  0.24617574  0.00027128  0.00000000  1
  Li  Li7  1  0.00027128  0.24617574  0.00000000  1
  Li  Li8  1  0.75411780  0.75411780  0.00000000  1
