# generated using pymatgen
data_H2HeLi
_symmetry_space_group_name_H-M   'P 1'
_cell_length_a   3.35678617
_cell_length_b   5.83044381
_cell_length_c   11.09526149
_cell_angle_alpha   90.00000000
_cell_angle_beta   90.00000000
_cell_angle_gamma   90.00000000
_symmetry_Int_Tables_number   1
_chemical_formula_structural   H2HeLi
_chemical_formula_sum   'H8 He4 Li4'
_cell_volume   217.15149958
_cell_formula_units_Z   4
loop_
 _symmetry_equiv_pos_site_id
 _symmetry_equiv_pos_as_xyz
  1  'x, y, z'
loop_
 _atom_site_type_symbol
 _atom_site_label
 _atom_site_symmetry_multiplicity
 _atom_site_fract_x
 _atom_site_fract_y
 _atom_site_fract_z
 _atom_site_occupancy
  H  H0  1  0.25000000  0.16744992  0.24677005  1
  H  H1  1  0.75000000  0.33255008  0.74677005  1
  H  H2  1  0.75000000  0.83255008  0.75322995  1
  H  H3  1  0.25000000  0.66744992  0.25322995  1
  H  H4  1  0.25000000  0.72841054  0.98731828  1
  H  H5  1  0.75000000  0.77158946  0.48731828  1
  H  H6  1  0.75000000  0.27158946  0.01268172  1
  H  H7  1  0.25000000  0.22841054  0.51268172  1
  He  He8  1  0.25000000  0.08287502  0.86047718  1
  He  He9  1  0.75000000  0.41712498  0.36047718  1
  He  He10  1  0.75000000  0.91712498  0.13952282  1
  He  He11  1  0.25000000  0.58287502  0.63952282  1
  Li  Li12  1  0.25000000  0.41669822  0.10749118  1
  Li  Li13  1  0.75000000  0.08330178  0.60749118  1
  Li  Li14  1  0.75000000  0.58330178  0.89250882  1
  Li  Li15  1  0.25000000  0.91669822  0.39250882  1
