# generated using pymatgen
data_H7HeLi2
_symmetry_space_group_name_H-M   'P 1'
_cell_length_a   12.37361689
_cell_length_b   5.56937251
_cell_length_c   8.35505463
_cell_angle_alpha   89.54154489
_cell_angle_beta   90.00000000
_cell_angle_gamma   90.00000000
_symmetry_Int_Tables_number   1
_chemical_formula_structural   H7HeLi2
_chemical_formula_sum   'H28 He4 Li8'
_cell_volume   575.75580236
_cell_formula_units_Z   4
loop_
 _symmetry_equiv_pos_site_id
 _symmetry_equiv_pos_as_xyz
  1  'x, y, z'
loop_
 _atom_site_type_symbol
 _atom_site_label
 _atom_site_symmetry_multiplicity
 _atom_site_fract_x
 _atom_site_fract_y
 _atom_site_fract_z
 _atom_site_occupancy
  H  H0  1  0.89505712  0.48863784  0.92510833  1
  H  H1  1  0.39505712  0.51136216  0.57489167  1
  H  H2  1  0.10494288  0.51136216  0.07489167  1
  H  H3  1  0.60494288  0.48863784  0.42510833  1
  H  H4  1  0.77043061  0.48866314  0.20602325  1
  H  H5  1  0.27043061  0.51133686  0.29397675  1
  H  H6  1  0.22956939  0.51133686  0.79397675  1
  H  H7  1  0.72956939  0.48866314  0.70602325  1
  H  H8  1  0.57456972  0.61927423  0.12810961  1
  H  H9  1  0.07456972  0.38072577  0.37189039  1
  H  H10  1  0.42543028  0.38072577  0.87189039  1
  H  H11  1  0.92543028  0.61927423  0.62810961  1
  H  H12  1  0.89523293  0.01520721  0.90866069  1
  H  H13  1  0.39523293  0.98479279  0.59133931  1
  H  H14  1  0.10476707  0.98479279  0.09133931  1
  H  H15  1  0.60476707  0.01520721  0.40866069  1
  H  H16  1  0.53833840  0.80257534  0.79024035  1
  H  H17  1  0.03833840  0.19742466  0.70975965  1
  H  H18  1  0.46166160  0.19742466  0.20975965  1
  H  H19  1  0.96166160  0.80257534  0.29024035  1
  H  H20  1  0.75482097  0.01406407  0.19508024  1
  H  H21  1  0.25482097  0.98593593  0.30491976  1
  H  H22  1  0.24517903  0.98593593  0.80491976  1
  H  H23  1  0.74517903  0.01406407  0.69508024  1
  H  H24  1  0.63730376  0.20049942  0.97219602  1
  H  H25  1  0.13730376  0.79950058  0.52780398  1
  H  H26  1  0.36269624  0.79950058  0.02780398  1
  H  H27  1  0.86269624  0.20049942  0.47219602  1
  He  He28  1  0.62568341  0.27935744  0.21449215  1
  He  He29  1  0.12568341  0.72064256  0.28550785  1
  He  He30  1  0.37431659  0.72064256  0.78550785  1
  He  He31  1  0.87431659  0.27935744  0.71449215  1
  Li  Li32  1  0.72034952  0.76718102  0.94632568  1
  Li  Li33  1  0.22034952  0.23281898  0.55367432  1
  Li  Li34  1  0.27965048  0.23281898  0.05367432  1
  Li  Li35  1  0.77965048  0.76718102  0.44632568  1
  Li  Li36  1  0.06184116  0.76645410  0.82336564  1
  Li  Li37  1  0.56184116  0.23354590  0.67663436  1
  Li  Li38  1  0.93815884  0.23354590  0.17663436  1
  Li  Li39  1  0.43815884  0.76645410  0.32336564  1
