# generated using pymatgen
data_HHe5Li3
_symmetry_space_group_name_H-M   'P 1'
_cell_length_a   9.85366704
_cell_length_b   9.85366704
_cell_length_c   7.19135458
_cell_angle_alpha   90.00000000
_cell_angle_beta   90.00000000
_cell_angle_gamma   120.00042362
_symmetry_Int_Tables_number   1
_chemical_formula_structural   HHe5Li3
_chemical_formula_sum   'H2 He10 Li6'
_cell_volume   604.69342586
_cell_formula_units_Z   2
loop_
 _symmetry_equiv_pos_site_id
 _symmetry_equiv_pos_as_xyz
  1  'x, y, z'
loop_
 _atom_site_type_symbol
 _atom_site_label
 _atom_site_symmetry_multiplicity
 _atom_site_fract_x
 _atom_site_fract_y
 _atom_site_fract_z
 _atom_site_occupancy
  H  H0  1  -0.00000000  -0.00000000  0.00000000  1
  H  H1  1  0.00000000  0.00000000  0.50000000  1
  He  He2  1  0.27709974  0.00000973  0.25000000  1
  He  He3  1  0.00000973  0.27709974  0.25000000  1
  He  He4  1  0.72289546  0.72289546  0.25000000  1
  He  He5  1  0.72290026  0.99999027  0.75000000  1
  He  He6  1  0.99999027  0.72290026  0.75000000  1
  He  He7  1  0.27710454  0.27710454  0.75000000  1
  He  He8  1  0.33331799  0.66668201  0.00000000  1
  He  He9  1  0.66668201  0.33331799  0.50000000  1
  He  He10  1  0.66668201  0.33331799  0.00000000  1
  He  He11  1  0.33331799  0.66668201  0.50000000  1
  Li  Li12  1  0.38574077  0.38574077  0.25000000  1
  Li  Li13  1  0.61426558  0.99999500  0.25000000  1
  Li  Li14  1  0.99999500  0.61426558  0.25000000  1
  Li  Li15  1  0.61425923  0.61425923  0.75000000  1
  Li  Li16  1  0.38573442  0.00000500  0.75000000  1
  Li  Li17  1  0.00000500  0.38573442  0.75000000  1
