# generated using pymatgen
data_H11HeLiBe2
_symmetry_space_group_name_H-M   'P 1'
_cell_length_a   5.78917070
_cell_length_b   5.78917070
_cell_length_c   7.93991357
_cell_angle_alpha   69.12111918
_cell_angle_beta   69.12111918
_cell_angle_gamma   73.12254805
_symmetry_Int_Tables_number   1
_chemical_formula_structural   H11HeLiBe2
_chemical_formula_sum   'H11 He1 Li1 Be2'
_cell_volume   228.20191542
_cell_formula_units_Z   1
loop_
 _symmetry_equiv_pos_site_id
 _symmetry_equiv_pos_as_xyz
  1  'x, y, z'
loop_
 _atom_site_type_symbol
 _atom_site_label
 _atom_site_symmetry_multiplicity
 _atom_site_fract_x
 _atom_site_fract_y
 _atom_site_fract_z
 _atom_site_occupancy
  H  H0  1  0.50000000  0.50000000  0.50000000  1
  H  H1  1  0.33077899  0.66922101  -0.00000000  1
  H  H2  1  0.66922101  0.33077899  -0.00000000  1
  H  H3  1  0.24609651  0.24609651  0.35341780  1
  H  H4  1  0.75390349  0.75390349  0.64658220  1
  H  H5  1  0.26749745  0.26749745  0.89054090  1
  H  H6  1  0.73250255  0.73250255  0.10945910  1
  H  H7  1  0.22395863  0.80620994  0.69149259  1
  H  H8  1  0.19379006  0.77604137  0.30850741  1
  H  H9  1  0.77604137  0.19379006  0.30850741  1
  H  H10  1  0.80620994  0.22395863  0.69149259  1
  He  He11  1  -0.00000000  -0.00000000  0.50000000  1
  Li  Li12  1  0.00000000  0.00000000  -0.00000000  1
  Be  Be13  1  0.50531782  0.50531782  0.76473946  1
  Be  Be14  1  0.49468218  0.49468218  0.23526054  1
