# generated using pymatgen
data_HHeLi4
_symmetry_space_group_name_H-M   'P 1'
_cell_length_a   10.05815691
_cell_length_b   10.05815691
_cell_length_c   10.05815691
_cell_angle_alpha   60.00000000
_cell_angle_beta   60.00000000
_cell_angle_gamma   60.00000000
_symmetry_Int_Tables_number   1
_chemical_formula_structural   HHeLi4
_chemical_formula_sum   'H4 He4 Li16'
_cell_volume   719.51561114
_cell_formula_units_Z   4
loop_
 _symmetry_equiv_pos_site_id
 _symmetry_equiv_pos_as_xyz
  1  'x, y, z'
loop_
 _atom_site_type_symbol
 _atom_site_label
 _atom_site_symmetry_multiplicity
 _atom_site_fract_x
 _atom_site_fract_y
 _atom_site_fract_z
 _atom_site_occupancy
  H  H0  1  0.42145273  0.73564182  0.42145273  1
  H  H1  1  0.42145273  0.42145273  0.73564182  1
  H  H2  1  0.42145273  0.42145273  0.42145273  1
  H  H3  1  0.73564182  0.42145273  0.42145273  1
  He  He4  1  0.85950155  0.42149534  0.85950155  1
  He  He5  1  0.85950155  0.85950155  0.42149534  1
  He  He6  1  0.85950155  0.85950155  0.85950155  1
  He  He7  1  0.42149534  0.85950155  0.85950155  1
  Li  Li8  1  0.06166737  0.06166737  0.43833263  1
  Li  Li9  1  0.43833263  0.43833263  0.06166737  1
  Li  Li10  1  0.43833263  0.06166737  0.43833263  1
  Li  Li11  1  0.06166737  0.43833263  0.06166737  1
  Li  Li12  1  0.43833263  0.06166737  0.06166737  1
  Li  Li13  1  0.06166737  0.43833263  0.43833263  1
  Li  Li14  1  0.18932129  0.18932129  0.81067871  1
  Li  Li15  1  0.81067871  0.81067871  0.18932129  1
  Li  Li16  1  0.81067871  0.18932129  0.81067871  1
  Li  Li17  1  0.18932129  0.81067871  0.18932129  1
  Li  Li18  1  0.81067871  0.18932129  0.18932129  1
  Li  Li19  1  0.18932129  0.81067871  0.81067871  1
  Li  Li20  1  0.65455292  0.03634124  0.65455292  1
  Li  Li21  1  0.65455292  0.65455292  0.03634124  1
  Li  Li22  1  0.65455292  0.65455292  0.65455292  1
  Li  Li23  1  0.03634124  0.65455292  0.65455292  1
