# generated using pymatgen
data_H3He2
_symmetry_space_group_name_H-M   'P 1'
_cell_length_a   8.99530215
_cell_length_b   8.99530215
_cell_length_c   8.99530215
_cell_angle_alpha   109.47122063
_cell_angle_beta   109.47122063
_cell_angle_gamma   109.47122063
_symmetry_Int_Tables_number   1
_chemical_formula_structural   H3He2
_chemical_formula_sum   'H24 He16'
_cell_volume   560.30613342
_cell_formula_units_Z   8
loop_
 _symmetry_equiv_pos_site_id
 _symmetry_equiv_pos_as_xyz
  1  'x, y, z'
loop_
 _atom_site_type_symbol
 _atom_site_label
 _atom_site_symmetry_multiplicity
 _atom_site_fract_x
 _atom_site_fract_y
 _atom_site_fract_z
 _atom_site_occupancy
  H  H0  1  0.46642823  0.45781421  0.22882477  1
  H  H1  1  0.27101056  0.04218579  0.00861401  1
  H  H2  1  0.22898944  0.73760345  0.27117523  1
  H  H3  1  0.03357177  0.76239655  0.49138599  1
  H  H4  1  0.45781421  0.22882477  0.46642823  1
  H  H5  1  0.04218579  0.00861401  0.27101056  1
  H  H6  1  0.73760345  0.27117523  0.22898944  1
  H  H7  1  0.76239655  0.49138599  0.03357177  1
  H  H8  1  0.22882477  0.46642823  0.45781421  1
  H  H9  1  0.00861401  0.27101056  0.04218579  1
  H  H10  1  0.27117523  0.22898944  0.73760345  1
  H  H11  1  0.49138599  0.03357177  0.76239655  1
  H  H12  1  0.53357177  0.54218579  0.77117523  1
  H  H13  1  0.72898944  0.95781421  0.99138599  1
  H  H14  1  0.77101056  0.26239655  0.72882477  1
  H  H15  1  0.96642823  0.23760345  0.50861401  1
  H  H16  1  0.54218579  0.77117523  0.53357177  1
  H  H17  1  0.95781421  0.99138599  0.72898944  1
  H  H18  1  0.26239655  0.72882477  0.77101056  1
  H  H19  1  0.23760345  0.50861401  0.96642823  1
  H  H20  1  0.77117523  0.53357177  0.54218579  1
  H  H21  1  0.99138599  0.72898944  0.95781421  1
  H  H22  1  0.72882477  0.77101056  0.26239655  1
  H  H23  1  0.50861401  0.96642823  0.23760345  1
  He  He24  1  0.50000000  0.50000000  0.50000000  1
  He  He25  1  0.50000000  -0.00000000  0.00000000  1
  He  He26  1  -0.00000000  0.50000000  -0.00000000  1
  He  He27  1  -0.00000000  0.00000000  0.50000000  1
  He  He28  1  0.75000000  0.03257925  0.78257925  1
  He  He29  1  0.25000000  0.46742075  0.71742075  1
  He  He30  1  0.03257925  0.78257925  0.75000000  1
  He  He31  1  0.46742075  0.71742075  0.25000000  1
  He  He32  1  0.78257925  0.75000000  0.03257925  1
  He  He33  1  0.71742075  0.25000000  0.46742075  1
  He  He34  1  0.25000000  0.96742075  0.21742075  1
  He  He35  1  0.75000000  0.53257925  0.28257925  1
  He  He36  1  0.96742075  0.21742075  0.25000000  1
  He  He37  1  0.53257925  0.28257925  0.75000000  1
  He  He38  1  0.21742075  0.25000000  0.96742075  1
  He  He39  1  0.28257925  0.75000000  0.53257925  1
