# generated using pymatgen
data_H2He(LiBe)2
_symmetry_space_group_name_H-M   'P 1'
_cell_length_a   8.37897890
_cell_length_b   6.66336364
_cell_length_c   12.66114993
_cell_angle_alpha   86.11567366
_cell_angle_beta   90.00000000
_cell_angle_gamma   90.00000000
_symmetry_Int_Tables_number   1
_chemical_formula_structural   H2He(LiBe)2
_chemical_formula_sum   'H8 He4 Li8 Be8'
_cell_volume   705.27578782
_cell_formula_units_Z   4
loop_
 _symmetry_equiv_pos_site_id
 _symmetry_equiv_pos_as_xyz
  1  'x, y, z'
loop_
 _atom_site_type_symbol
 _atom_site_label
 _atom_site_symmetry_multiplicity
 _atom_site_fract_x
 _atom_site_fract_y
 _atom_site_fract_z
 _atom_site_occupancy
  H  H0  1  0.31557102  0.72436095  0.94943045  1
  H  H1  1  0.81557102  0.77563905  0.55056955  1
  H  H2  1  0.68442898  0.27563905  0.05056955  1
  H  H3  1  0.18442898  0.22436095  0.44943045  1
  H  H4  1  0.51796319  0.14589338  0.70082001  1
  H  H5  1  0.01796319  0.35410662  0.79917999  1
  H  H6  1  0.48203681  0.85410662  0.29917999  1
  H  H7  1  0.98203681  0.64589338  0.20082001  1
  He  He8  1  0.79313965  0.80988754  0.91563756  1
  He  He9  1  0.29313965  0.69011246  0.58436244  1
  He  He10  1  0.20686035  0.19011246  0.08436244  1
  He  He11  1  0.70686035  0.30988754  0.41563756  1
  Li  Li12  1  0.98859333  0.71581374  0.93607621  1
  Li  Li13  1  0.48859333  0.78418626  0.56392379  1
  Li  Li14  1  0.01140667  0.28418626  0.06392379  1
  Li  Li15  1  0.51140667  0.21581374  0.43607621  1
  Li  Li16  1  0.79273371  0.06666213  0.86797950  1
  Li  Li17  1  0.29273371  0.43333787  0.63202050  1
  Li  Li18  1  0.20726629  0.93333787  0.13202050  1
  Li  Li19  1  0.70726629  0.56666213  0.36797950  1
  Be  Be20  1  0.83838664  0.27870683  0.57100543  1
  Be  Be21  1  0.33838664  0.22129317  0.92899457  1
  Be  Be22  1  0.16161336  0.72129317  0.42899457  1
  Be  Be23  1  0.66161336  0.77870683  0.07100543  1
  Be  Be24  1  0.66672447  0.62605012  0.80088755  1
  Be  Be25  1  0.16672447  0.87394988  0.69911245  1
  Be  Be26  1  0.33327553  0.37394988  0.19911245  1
  Be  Be27  1  0.83327553  0.12605012  0.30088755  1
