# generated using pymatgen
data_H3He2Li3Be6B
_symmetry_space_group_name_H-M   'P 1'
_cell_length_a   7.77937045
_cell_length_b   6.76755663
_cell_length_c   11.08305537
_cell_angle_alpha   78.76900007
_cell_angle_beta   90.00000000
_cell_angle_gamma   90.00000000
_symmetry_Int_Tables_number   1
_chemical_formula_structural   H3He2Li3Be6B
_chemical_formula_sum   'H6 He4 Li6 Be12 B2'
_cell_volume   572.31933205
_cell_formula_units_Z   2
loop_
 _symmetry_equiv_pos_site_id
 _symmetry_equiv_pos_as_xyz
  1  'x, y, z'
loop_
 _atom_site_type_symbol
 _atom_site_label
 _atom_site_symmetry_multiplicity
 _atom_site_fract_x
 _atom_site_fract_y
 _atom_site_fract_z
 _atom_site_occupancy
  H  H0  1  0.75000000  0.70748030  0.45733114  1
  H  H1  1  0.25000000  0.29251970  0.54266886  1
  H  H2  1  0.96906474  0.09591409  0.29916316  1
  H  H3  1  0.46906474  0.90408591  0.70083684  1
  H  H4  1  0.03093526  0.90408591  0.70083684  1
  H  H5  1  0.53093526  0.09591409  0.29916316  1
  He  He6  1  0.25000000  0.38175369  0.11526972  1
  He  He7  1  0.75000000  0.61824631  0.88473028  1
  He  He8  1  0.25000000  0.78871799  0.46917192  1
  He  He9  1  0.75000000  0.21128201  0.53082808  1
  Li  Li10  1  0.94171662  0.68375666  0.20737343  1
  Li  Li11  1  0.44171662  0.31624334  0.79262657  1
  Li  Li12  1  0.05828338  0.31624334  0.79262657  1
  Li  Li13  1  0.55828338  0.68375666  0.20737343  1
  Li  Li14  1  0.75000000  0.05163565  0.06620158  1
  Li  Li15  1  0.25000000  0.94836435  0.93379842  1
  Be  Be16  1  0.05498054  0.63069982  0.28498319  1
  Be  Be17  1  0.55498054  0.36930018  0.71501681  1
  Be  Be18  1  0.94501946  0.36930018  0.71501681  1
  Be  Be19  1  0.44501946  0.63069982  0.28498319  1
  Be  Be20  1  0.93607871  0.62420239  0.10892028  1
  Be  Be21  1  0.43607871  0.37579761  0.89107972  1
  Be  Be22  1  0.06392129  0.37579761  0.89107972  1
  Be  Be23  1  0.56392129  0.62420239  0.10892028  1
  Be  Be24  1  0.75000000  0.23553345  0.05802261  1
  Be  Be25  1  0.25000000  0.76446655  0.94197739  1
  Be  Be26  1  0.75000000  0.96800250  0.97672706  1
  Be  Be27  1  0.25000000  0.03199750  0.02327294  1
  B  B28  1  0.75000000  0.87940803  0.24695283  1
  B  B29  1  0.25000000  0.12059197  0.75304717  1
