# generated using pymatgen
data_H4He4Li
_symmetry_space_group_name_H-M   'P 1'
_cell_length_a   5.35979452
_cell_length_b   5.36116112
_cell_length_c   7.75038063
_cell_angle_alpha   90.00554730
_cell_angle_beta   90.00105907
_cell_angle_gamma   90.00302664
_symmetry_Int_Tables_number   1
_chemical_formula_structural   H4He4Li
_chemical_formula_sum   'H8 He8 Li2'
_cell_volume   222.70503150
_cell_formula_units_Z   2
loop_
 _symmetry_equiv_pos_site_id
 _symmetry_equiv_pos_as_xyz
  1  'x, y, z'
loop_
 _atom_site_type_symbol
 _atom_site_label
 _atom_site_symmetry_multiplicity
 _atom_site_fract_x
 _atom_site_fract_y
 _atom_site_fract_z
 _atom_site_occupancy
  H  H0  1  0.24998030  0.08050580  0.10944073  1
  H  H1  1  0.24997831  0.41950425  0.10945142  1
  H  H2  1  0.41952258  0.24998120  0.60949537  1
  H  H3  1  0.08048764  0.24998271  0.60947600  1
  H  H4  1  0.75002169  0.58049575  0.89054858  1
  H  H5  1  0.75001970  0.91949420  0.89055927  1
  H  H6  1  0.58047742  0.75001880  0.39050463  1
  H  H7  1  0.91951236  0.75001729  0.39052400  1
  He  He8  1  0.24998181  0.49977807  0.39045288  1
  He  He9  1  0.24998993  0.00025329  0.39044325  1
  He  He10  1  0.00023607  0.24998789  0.89045331  1
  He  He11  1  0.49979869  0.24998692  0.89047049  1
  He  He12  1  0.75001007  0.99974671  0.60955675  1
  He  He13  1  0.75001819  0.50022193  0.60954712  1
  He  He14  1  0.99976393  0.75001211  0.10954669  1
  He  He15  1  0.50020131  0.75001308  0.10952951  1
  Li  Li16  1  0.74996960  0.25003107  0.24997850  1
  Li  Li17  1  0.25003040  0.74996893  0.75002150  1
