# generated using pymatgen
data_HHeLi4
_symmetry_space_group_name_H-M   'P 1'
_cell_length_a   7.30946549
_cell_length_b   7.30946549
_cell_length_c   7.30946549
_cell_angle_alpha   127.98019696
_cell_angle_beta   127.98019696
_cell_angle_gamma   76.65711043
_symmetry_Int_Tables_number   1
_chemical_formula_structural   HHeLi4
_chemical_formula_sum   'H1 He1 Li4'
_cell_volume   235.65863617
_cell_formula_units_Z   1
loop_
 _symmetry_equiv_pos_site_id
 _symmetry_equiv_pos_as_xyz
  1  'x, y, z'
loop_
 _atom_site_type_symbol
 _atom_site_label
 _atom_site_symmetry_multiplicity
 _atom_site_fract_x
 _atom_site_fract_y
 _atom_site_fract_z
 _atom_site_occupancy
  H  H0  1  0.50000000  0.50000000  0.00000000  1
  He  He1  1  0.75000000  0.25000000  0.50000000  1
  Li  Li2  1  0.38854608  0.36379530  0.50705333  1
  Li  Li3  1  0.85674197  0.88149275  0.49294667  1
  Li  Li4  1  0.11850725  0.61145392  0.97524922  1
  Li  Li5  1  0.63620470  0.14325803  0.02475078  1
