# generated using pymatgen
data_HHe2Li4
_symmetry_space_group_name_H-M   'P 1'
_cell_length_a   7.61549567
_cell_length_b   7.81941931
_cell_length_c   10.96730330
_cell_angle_alpha   75.46711565
_cell_angle_beta   90.00000000
_cell_angle_gamma   90.00000000
_symmetry_Int_Tables_number   1
_chemical_formula_structural   HHe2Li4
_chemical_formula_sum   'H4 He8 Li16'
_cell_volume   632.19285661
_cell_formula_units_Z   4
loop_
 _symmetry_equiv_pos_site_id
 _symmetry_equiv_pos_as_xyz
  1  'x, y, z'
loop_
 _atom_site_type_symbol
 _atom_site_label
 _atom_site_symmetry_multiplicity
 _atom_site_fract_x
 _atom_site_fract_y
 _atom_site_fract_z
 _atom_site_occupancy
  H  H0  1  0.38626717  0.67966136  0.00599860  1
  H  H1  1  0.88626717  0.32033864  0.49400140  1
  H  H2  1  0.61373283  0.32033864  0.99400140  1
  H  H3  1  0.11373283  0.67966136  0.50599860  1
  He  He4  1  0.79847429  0.94002810  0.35894916  1
  He  He5  1  0.29847429  0.05997190  0.14105084  1
  He  He6  1  0.20152571  0.05997190  0.64105084  1
  He  He7  1  0.70152571  0.94002810  0.85894916  1
  He  He8  1  0.37572287  0.46973302  0.32589704  1
  He  He9  1  0.87572287  0.53026698  0.17410296  1
  He  He10  1  0.62427713  0.53026698  0.67410296  1
  He  He11  1  0.12427713  0.46973302  0.82589704  1
  Li  Li12  1  0.21395301  0.44560031  0.08732252  1
  Li  Li13  1  0.71395301  0.55439969  0.41267748  1
  Li  Li14  1  0.78604699  0.55439969  0.91267748  1
  Li  Li15  1  0.28604699  0.44560031  0.58732252  1
  Li  Li16  1  0.10641853  0.75225058  0.29227280  1
  Li  Li17  1  0.60641853  0.24774942  0.20772720  1
  Li  Li18  1  0.89358147  0.24774942  0.70772720  1
  Li  Li19  1  0.39358147  0.75225058  0.79227280  1
  Li  Li20  1  0.57331061  0.79417638  0.12660060  1
  Li  Li21  1  0.07331061  0.20582362  0.37339940  1
  Li  Li22  1  0.42668939  0.20582362  0.87339940  1
  Li  Li23  1  0.92668939  0.79417638  0.62660060  1
  Li  Li24  1  0.44563212  0.89084711  0.47325899  1
  Li  Li25  1  0.94563212  0.10915289  0.02674101  1
  Li  Li26  1  0.55436788  0.10915289  0.52674101  1
  Li  Li27  1  0.05436788  0.89084711  0.97325899  1
