# generated using pymatgen
data_H2He4Li
_symmetry_space_group_name_H-M   'P 1'
_cell_length_a   7.20094470
_cell_length_b   9.92302290
_cell_length_c   12.80321994
_cell_angle_alpha   90.00000000
_cell_angle_beta   90.00000000
_cell_angle_gamma   90.00000000
_symmetry_Int_Tables_number   1
_chemical_formula_structural   H2He4Li
_chemical_formula_sum   'H8 He16 Li4'
_cell_volume   914.85586241
_cell_formula_units_Z   4
loop_
 _symmetry_equiv_pos_site_id
 _symmetry_equiv_pos_as_xyz
  1  'x, y, z'
loop_
 _atom_site_type_symbol
 _atom_site_label
 _atom_site_symmetry_multiplicity
 _atom_site_fract_x
 _atom_site_fract_y
 _atom_site_fract_z
 _atom_site_occupancy
  H  H0  1  0.25000000  0.46039219  0.83302390  1
  H  H1  1  0.75000000  0.03960781  0.33302390  1
  H  H2  1  0.75000000  0.53960781  0.16697610  1
  H  H3  1  0.25000000  0.96039219  0.66697610  1
  H  H4  1  0.25000000  0.65831289  0.39150265  1
  H  H5  1  0.75000000  0.84168711  0.89150265  1
  H  H6  1  0.75000000  0.34168711  0.60849735  1
  H  H7  1  0.25000000  0.15831289  0.10849735  1
  He  He8  1  0.25000000  0.28553962  0.59793687  1
  He  He9  1  0.75000000  0.21446038  0.09793687  1
  He  He10  1  0.75000000  0.71446038  0.40206313  1
  He  He11  1  0.25000000  0.78553962  0.90206313  1
  He  He12  1  0.00128887  0.34126310  0.35756474  1
  He  He13  1  0.99871113  0.15873690  0.85756474  1
  He  He14  1  0.50128887  0.65873690  0.64243526  1
  He  He15  1  0.49871113  0.84126310  0.14243526  1
  He  He16  1  0.99871113  0.65873690  0.64243526  1
  He  He17  1  0.00128887  0.84126310  0.14243526  1
  He  He18  1  0.49871113  0.34126310  0.35756474  1
  He  He19  1  0.50128887  0.15873690  0.85756474  1
  He  He20  1  0.25000000  0.02750895  0.39407400  1
  He  He21  1  0.75000000  0.47249105  0.89407400  1
  He  He22  1  0.75000000  0.97249105  0.60592600  1
  He  He23  1  0.25000000  0.52750895  0.10592600  1
  Li  Li24  1  0.25000000  0.24733354  0.42745941  1
  Li  Li25  1  0.75000000  0.25266646  0.92745941  1
  Li  Li26  1  0.75000000  0.75266646  0.57254059  1
  Li  Li27  1  0.25000000  0.74733354  0.07254059  1
