# generated using pymatgen
data_H3He4
_symmetry_space_group_name_H-M   'P 1'
_cell_length_a   6.07839788
_cell_length_b   6.07839788
_cell_length_c   6.07839788
_cell_angle_alpha   59.66379223
_cell_angle_beta   59.66379223
_cell_angle_gamma   59.66379223
_symmetry_Int_Tables_number   1
_chemical_formula_structural   H3He4
_chemical_formula_sum   'H6 He8'
_cell_volume   157.58766814
_cell_formula_units_Z   2
loop_
 _symmetry_equiv_pos_site_id
 _symmetry_equiv_pos_as_xyz
  1  'x, y, z'
loop_
 _atom_site_type_symbol
 _atom_site_label
 _atom_site_symmetry_multiplicity
 _atom_site_fract_x
 _atom_site_fract_y
 _atom_site_fract_z
 _atom_site_occupancy
  H  H0  1  0.87354169  0.87354169  0.87354169  1
  H  H1  1  0.12645831  0.12645831  0.12645831  1
  H  H2  1  0.50000000  0.50000000  0.50000000  1
  H  H3  1  0.50000106  0.49999894  0.00000000  1
  H  H4  1  0.49999894  0.00000000  0.50000106  1
  H  H5  1  0.00000000  0.50000106  0.49999894  1
  He  He6  1  0.74475332  0.74475332  0.74475332  1
  He  He7  1  0.25524668  0.25524668  0.25524668  1
  He  He8  1  0.26713638  0.74126527  0.74126745  1
  He  He9  1  0.74126527  0.74126745  0.26713638  1
  He  He10  1  0.74126745  0.26713638  0.74126527  1
  He  He11  1  0.73286362  0.25873255  0.25873473  1
  He  He12  1  0.25873473  0.73286362  0.25873255  1
  He  He13  1  0.25873255  0.25873473  0.73286362  1
