# generated using pymatgen
data_H3He2Li6Be
_symmetry_space_group_name_H-M   'P 1'
_cell_length_a   5.46495136
_cell_length_b   5.46495278
_cell_length_c   19.01731921
_cell_angle_alpha   90.00002563
_cell_angle_beta   89.99999393
_cell_angle_gamma   120.00013565
_symmetry_Int_Tables_number   1
_chemical_formula_structural   H3He2Li6Be
_chemical_formula_sum   'H9 He6 Li18 Be3'
_cell_volume   491.87194113
_cell_formula_units_Z   3
loop_
 _symmetry_equiv_pos_site_id
 _symmetry_equiv_pos_as_xyz
  1  'x, y, z'
loop_
 _atom_site_type_symbol
 _atom_site_label
 _atom_site_symmetry_multiplicity
 _atom_site_fract_x
 _atom_site_fract_y
 _atom_site_fract_z
 _atom_site_occupancy
  H  H0  1  0.11131964  0.88867831  0.83332511  1
  H  H1  1  0.11132153  0.22264141  0.16665839  1
  H  H2  1  0.77735855  0.88868042  0.49999171  1
  H  H3  1  0.77545299  0.22455026  0.83332513  1
  H  H4  1  0.77544967  0.55090281  0.16665835  1
  H  H5  1  0.44909716  0.22454709  0.49999180  1
  H  H6  1  0.45160748  0.54839101  0.83332490  1
  H  H7  1  0.45160886  0.90321635  0.16665816  1
  H  H8  1  0.09678357  0.54839271  0.49999152  1
  He  He9  1  0.11948422  0.55973564  0.99999176  1
  He  He10  1  0.44026220  0.55974765  0.33332506  1
  He  He11  1  0.44025297  0.88051607  0.66665843  1
  He  He12  1  0.78621770  0.89310180  0.99999162  1
  He  He13  1  0.10689683  0.89311551  0.33332494  1
  He  He14  1  0.10688472  0.21378177  0.66665832  1
  Li  Li15  1  0.13436547  0.22641778  0.05471876  1
  Li  Li16  1  0.77358352  0.90794810  0.38805222  1
  Li  Li17  1  0.09205239  0.86563551  0.72138536  1
  Li  Li18  1  0.77357130  0.86563503  0.61193138  1
  Li  Li19  1  0.09206331  0.22642844  0.27859796  1
  Li  Li20  1  0.13436473  0.90793678  0.94526477  1
  Li  Li21  1  0.77159653  0.54567808  0.05458900  1
  Li  Li22  1  0.45432108  0.22591873  0.38792202  1
  Li  Li23  1  0.77408084  0.22840226  0.72125541  1
  Li  Li24  1  0.45430987  0.22840268  0.61206096  1
  Li  Li25  1  0.77409336  0.54569075  0.27872782  1
  Li  Li26  1  0.77159775  0.22590818  0.94539447  1
  Li  Li27  1  0.45261025  0.90756895  0.05468004  1
  Li  Li28  1  0.09243125  0.54504049  0.38801362  1
  Li  Li29  1  0.45495892  0.54738981  0.72134693  1
  Li  Li30  1  0.09241979  0.54738950  0.61196954  1
  Li  Li31  1  0.45497025  0.90757977  0.27863634  1
  Li  Li32  1  0.45261051  0.54502951  0.94530279  1
  Be  Be33  1  0.45289102  0.22644075  0.99999181  1
  Be  Be34  1  0.77356124  0.22645093  0.33332508  1
  Be  Be35  1  0.77354851  0.54710916  0.66665854  1
