# generated using pymatgen
data_H2He2Li
_symmetry_space_group_name_H-M   'P 1'
_cell_length_a   6.01668214
_cell_length_b   6.01668214
_cell_length_c   11.38577734
_cell_angle_alpha   90.00000000
_cell_angle_beta   90.00000000
_cell_angle_gamma   148.22804465
_symmetry_Int_Tables_number   1
_chemical_formula_structural   H2He2Li
_chemical_formula_sum   'H4 He4 Li2'
_cell_volume   217.02410451
_cell_formula_units_Z   2
loop_
 _symmetry_equiv_pos_site_id
 _symmetry_equiv_pos_as_xyz
  1  'x, y, z'
loop_
 _atom_site_type_symbol
 _atom_site_label
 _atom_site_symmetry_multiplicity
 _atom_site_fract_x
 _atom_site_fract_y
 _atom_site_fract_z
 _atom_site_occupancy
  H  H0  1  0.22406760  0.77593240  0.75000000  1
  H  H1  1  0.77593240  0.22406760  0.25000000  1
  H  H2  1  0.00000000  -0.00000000  0.00000000  1
  H  H3  1  -0.00000000  0.00000000  0.50000000  1
  He  He4  1  0.20183587  0.79816413  0.95652706  1
  He  He5  1  0.79816413  0.20183587  0.45652706  1
  He  He6  1  0.20183587  0.79816413  0.54347294  1
  He  He7  1  0.79816413  0.20183587  0.04347294  1
  Li  Li8  1  0.47679801  0.52320199  0.75000000  1
  Li  Li9  1  0.52320199  0.47679801  0.25000000  1
