# generated using pymatgen
data_H5He12Li19
_symmetry_space_group_name_H-M   'P 1'
_cell_length_a   12.47146089
_cell_length_b   12.47197001
_cell_length_c   3.97807672
_cell_angle_alpha   90.00000000
_cell_angle_beta   90.00000000
_cell_angle_gamma   119.99864965
_symmetry_Int_Tables_number   1
_chemical_formula_structural   H5He12Li19
_chemical_formula_sum   'H5 He12 Li19'
_cell_volume   535.87325479
_cell_formula_units_Z   1
loop_
 _symmetry_equiv_pos_site_id
 _symmetry_equiv_pos_as_xyz
  1  'x, y, z'
loop_
 _atom_site_type_symbol
 _atom_site_label
 _atom_site_symmetry_multiplicity
 _atom_site_fract_x
 _atom_site_fract_y
 _atom_site_fract_z
 _atom_site_occupancy
  H  H0  1  0.00000178  0.81537517  0.50000000  1
  H  H1  1  0.18462662  0.18462483  0.50000000  1
  H  H2  1  0.81538165  0.00000000  0.50000000  1
  H  H3  1  0.66666026  0.33332731  0.00000000  1
  H  H4  1  0.33333295  0.66667269  -0.00000000  1
  He  He5  1  0.99999762  0.18481316  -0.00000000  1
  He  He6  1  0.81518445  0.81518684  0.00000000  1
  He  He7  1  0.18481252  -0.00000000  0.00000000  1
  He  He8  1  0.47635976  0.17110123  0.50000000  1
  He  He9  1  0.82891121  0.30527117  0.50000000  1
  He  He10  1  0.69473494  0.52364689  0.50000000  1
  He  He11  1  0.30525853  0.82889877  0.50000000  1
  He  He12  1  0.52364004  0.69472883  0.50000000  1
  He  He13  1  0.17108805  0.47635311  0.50000000  1
  He  He14  1  0.00000352  0.62636381  0.00000000  1
  He  He15  1  0.37363971  0.37363619  0.00000000  1
  He  He16  1  0.62634957  0.00000000  0.00000000  1
  Li  Li17  1  0.00000058  0.44467618  0.00000000  1
  Li  Li18  1  0.55532441  0.55532382  -0.00000000  1
  Li  Li19  1  0.44468834  -0.00000000  0.00000000  1
  Li  Li20  1  0.99999631  0.28172805  0.50000000  1
  Li  Li21  1  0.71826825  0.71827195  0.50000000  1
  Li  Li22  1  0.28174168  0.00000000  0.50000000  1
  Li  Li23  1  0.37667854  0.18529479  0.00000000  1
  Li  Li24  1  0.81469881  0.19138241  0.00000000  1
  Li  Li25  1  0.80862026  0.62332591  0.00000000  1
  Li  Li26  1  0.19138374  0.81470521  0.00000000  1
  Li  Li27  1  0.62331640  0.80861759  0.00000000  1
  Li  Li28  1  0.18529435  0.37667409  0.00000000  1
  Li  Li29  1  0.12587500  0.63345208  0.50000000  1
  Li  Li30  1  0.36654633  0.49241769  0.50000000  1
  Li  Li31  1  0.50758073  0.87413545  0.50000000  1
  Li  Li32  1  0.49242292  0.36654792  0.50000000  1
  Li  Li33  1  0.87412863  0.50758231  0.50000000  1
  Li  Li34  1  0.63344528  0.12586455  0.50000000  1
  Li  Li35  1  0.00000625  -0.00000000  0.00000000  1
