# generated using pymatgen
data_HHe4
_symmetry_space_group_name_H-M   'P 1'
_cell_length_a   13.75385029
_cell_length_b   4.67385078
_cell_length_c   7.05842714
_cell_angle_alpha   78.44103359
_cell_angle_beta   90.00000000
_cell_angle_gamma   90.00000000
_symmetry_Int_Tables_number   1
_chemical_formula_structural   HHe4
_chemical_formula_sum   'H6 He24'
_cell_volume   444.53770658
_cell_formula_units_Z   6
loop_
 _symmetry_equiv_pos_site_id
 _symmetry_equiv_pos_as_xyz
  1  'x, y, z'
loop_
 _atom_site_type_symbol
 _atom_site_label
 _atom_site_symmetry_multiplicity
 _atom_site_fract_x
 _atom_site_fract_y
 _atom_site_fract_z
 _atom_site_occupancy
  H  H0  1  0.00000000  0.00000000  -0.00000000  1
  H  H1  1  0.50000000  -0.00000000  0.50000000  1
  H  H2  1  0.16928539  0.86011902  0.38066611  1
  H  H3  1  0.66928539  0.13988098  0.11933389  1
  H  H4  1  0.83071461  0.13988098  0.61933389  1
  H  H5  1  0.33071461  0.86011902  0.88066611  1
  He  He6  1  0.94675253  0.79988099  0.75039787  1
  He  He7  1  0.44675253  0.20011901  0.74960213  1
  He  He8  1  0.05324747  0.20011901  0.24960213  1
  He  He9  1  0.55324747  0.79988099  0.25039787  1
  He  He10  1  0.10722401  0.65068997  0.14604763  1
  He  He11  1  0.60722401  0.34931003  0.35395237  1
  He  He12  1  0.89277599  0.34931003  0.85395237  1
  He  He13  1  0.39277599  0.65068997  0.64604763  1
  He  He14  1  0.88598091  0.73550602  0.19759655  1
  He  He15  1  0.38598091  0.26449398  0.30240345  1
  He  He16  1  0.11401909  0.26449398  0.80240345  1
  He  He17  1  0.61401909  0.73550602  0.69759655  1
  He  He18  1  0.44487006  0.63003318  0.07164428  1
  He  He19  1  0.94487006  0.36996682  0.42835572  1
  He  He20  1  0.55512994  0.36996682  0.92835572  1
  He  He21  1  0.05512994  0.63003318  0.57164428  1
  He  He22  1  0.27424465  0.07554132  0.13521712  1
  He  He23  1  0.77424465  0.92445868  0.36478288  1
  He  He24  1  0.72575535  0.92445868  0.86478288  1
  He  He25  1  0.22575535  0.07554132  0.63521712  1
  He  He26  1  0.28184942  0.50525039  0.46793745  1
  He  He27  1  0.78184942  0.49474961  0.03206255  1
  He  He28  1  0.71815058  0.49474961  0.53206255  1
  He  He29  1  0.21815058  0.50525039  0.96793745  1
