# generated using pymatgen
data_HHe2Li4Be
_symmetry_space_group_name_H-M   'P 1'
_cell_length_a   7.18314160
_cell_length_b   7.18314160
_cell_length_c   7.18314160
_cell_angle_alpha   131.11667865
_cell_angle_beta   131.11667865
_cell_angle_gamma   71.62776662
_symmetry_Int_Tables_number   1
_chemical_formula_structural   HHe2Li4Be
_chemical_formula_sum   'H1 He2 Li4 Be1'
_cell_volume   205.82258235
_cell_formula_units_Z   1
loop_
 _symmetry_equiv_pos_site_id
 _symmetry_equiv_pos_as_xyz
  1  'x, y, z'
loop_
 _atom_site_type_symbol
 _atom_site_label
 _atom_site_symmetry_multiplicity
 _atom_site_fract_x
 _atom_site_fract_y
 _atom_site_fract_z
 _atom_site_occupancy
  H  H0  1  -0.00000000  -0.00000000  0.00000000  1
  He  He1  1  0.75000000  0.25000000  0.50000000  1
  He  He2  1  0.25000000  0.75000000  0.50000000  1
  Li  Li3  1  0.39482928  0.39482928  0.50797683  1
  Li  Li4  1  0.88685245  0.88685245  0.49202317  1
  Li  Li5  1  0.60517072  0.11314755  0.00000000  1
  Li  Li6  1  0.11314755  0.60517072  -0.00000000  1
  Be  Be7  1  0.50000000  0.50000000  0.00000000  1
