# generated using pymatgen
data_H3He2
_symmetry_space_group_name_H-M   'P 1'
_cell_length_a   3.87010335
_cell_length_b   11.23758028
_cell_length_c   12.14698950
_cell_angle_alpha   90.00000000
_cell_angle_beta   90.00000000
_cell_angle_gamma   90.00000000
_symmetry_Int_Tables_number   1
_chemical_formula_structural   H3He2
_chemical_formula_sum   'H12 He8'
_cell_volume   528.27982630
_cell_formula_units_Z   4
loop_
 _symmetry_equiv_pos_site_id
 _symmetry_equiv_pos_as_xyz
  1  'x, y, z'
loop_
 _atom_site_type_symbol
 _atom_site_label
 _atom_site_symmetry_multiplicity
 _atom_site_fract_x
 _atom_site_fract_y
 _atom_site_fract_z
 _atom_site_occupancy
  H  H0  1  0.75000000  0.12482282  0.04515576  1
  H  H1  1  0.25000000  0.62482282  0.45484424  1
  H  H2  1  0.25000000  0.87517718  0.95484424  1
  H  H3  1  0.75000000  0.37517718  0.54515576  1
  H  H4  1  0.75000000  0.44278742  0.87582109  1
  H  H5  1  0.25000000  0.94278742  0.62417891  1
  H  H6  1  0.25000000  0.55721258  0.12417891  1
  H  H7  1  0.75000000  0.05721258  0.37582109  1
  H  H8  1  0.75000000  0.81240655  0.19912240  1
  H  H9  1  0.25000000  0.31240655  0.30087760  1
  H  H10  1  0.25000000  0.18759345  0.80087760  1
  H  H11  1  0.75000000  0.68759345  0.69912240  1
  He  He12  1  0.75000000  0.67196902  0.03436180  1
  He  He13  1  0.25000000  0.17196902  0.46563820  1
  He  He14  1  0.25000000  0.32803098  0.96563820  1
  He  He15  1  0.75000000  0.82803098  0.53436180  1
  He  He16  1  0.75000000  0.03311808  0.85922616  1
  He  He17  1  0.25000000  0.53311808  0.64077384  1
  He  He18  1  0.25000000  0.96688192  0.14077384  1
  He  He19  1  0.75000000  0.46688192  0.35922616  1
