# generated using pymatgen
data_HHe6Li2
_symmetry_space_group_name_H-M   'P 1'
_cell_length_a   9.18979797
_cell_length_b   9.18979797
_cell_length_c   5.09701347
_cell_angle_alpha   89.99201079
_cell_angle_beta   90.00798921
_cell_angle_gamma   120.00792191
_symmetry_Int_Tables_number   1
_chemical_formula_structural   HHe6Li2
_chemical_formula_sum   'H3 He18 Li6'
_cell_volume   372.75515833
_cell_formula_units_Z   3
loop_
 _symmetry_equiv_pos_site_id
 _symmetry_equiv_pos_as_xyz
  1  'x, y, z'
loop_
 _atom_site_type_symbol
 _atom_site_label
 _atom_site_symmetry_multiplicity
 _atom_site_fract_x
 _atom_site_fract_y
 _atom_site_fract_z
 _atom_site_occupancy
  H  H0  1  0.00007534  0.00007534  -0.00000000  1
  H  H1  1  0.33332851  0.66656938  0.50261108  1
  H  H2  1  0.66656938  0.33332851  0.49738892  1
  He  He3  1  0.09726323  0.87675818  0.77645093  1
  He  He4  1  0.12322336  0.22061806  0.77648754  1
  He  He5  1  0.77958844  0.90284136  0.77650488  1
  He  He6  1  0.87675818  0.09726323  0.22354907  1
  He  He7  1  0.22061806  0.12322336  0.22351246  1
  He  He8  1  0.90284136  0.77958844  0.22349512  1
  He  He9  1  0.45716512  0.57065443  0.73313604  1
  He  He10  1  0.42941147  0.88620569  0.73307080  1
  He  He11  1  0.11370118  0.54313874  0.73299276  1
  He  He12  1  0.57065443  0.45716512  0.26686396  1
  He  He13  1  0.88620569  0.42941147  0.26692920  1
  He  He14  1  0.54313874  0.11370118  0.26700724  1
  He  He15  1  0.21947295  0.77251648  0.27181439  1
  He  He16  1  0.22717113  0.44667664  0.27194418  1
  He  He17  1  0.55308523  0.78056838  0.27199122  1
  He  He18  1  0.77251648  0.21947295  0.72818561  1
  He  He19  1  0.44667664  0.22717113  0.72805582  1
  He  He20  1  0.78056838  0.55308523  0.72800878  1
  Li  Li21  1  0.64297249  0.99995048  0.00004780  1
  Li  Li22  1  0.99995048  0.64297249  0.99995220  1
  Li  Li23  1  0.35701708  0.35701708  0.00000000  1
  Li  Li24  1  0.30856990  0.99989093  0.49995051  1
  Li  Li25  1  0.99989093  0.30856990  0.50004949  1
  Li  Li26  1  0.69156581  0.69156581  0.50000000  1
