# generated using pymatgen
data_HHe2Li5Be
_symmetry_space_group_name_H-M   'P 1'
_cell_length_a   3.98097262
_cell_length_b   3.98080813
_cell_length_c   7.62232690
_cell_angle_alpha   90.00000000
_cell_angle_beta   90.00000000
_cell_angle_gamma   90.00000000
_symmetry_Int_Tables_number   1
_chemical_formula_structural   HHe2Li5Be
_chemical_formula_sum   'H1 He2 Li5 Be1'
_cell_volume   120.79473538
_cell_formula_units_Z   1
loop_
 _symmetry_equiv_pos_site_id
 _symmetry_equiv_pos_as_xyz
  1  'x, y, z'
loop_
 _atom_site_type_symbol
 _atom_site_label
 _atom_site_symmetry_multiplicity
 _atom_site_fract_x
 _atom_site_fract_y
 _atom_site_fract_z
 _atom_site_occupancy
  H  H0  1  0.00000000  0.00000000  0.00000000  1
  He  He1  1  0.50000000  0.50000000  0.26853847  1
  He  He2  1  0.50000000  0.50000000  0.73146153  1
  Li  Li3  1  0.50000000  0.50000000  0.00000000  1
  Li  Li4  1  0.50000000  0.00000000  0.31390452  1
  Li  Li5  1  0.50000000  0.00000000  0.68609548  1
  Li  Li6  1  0.00000000  0.50000000  0.31385238  1
  Li  Li7  1  0.00000000  0.50000000  0.68614762  1
  Be  Be8  1  0.00000000  0.00000000  0.50000000  1
