# generated using pymatgen
data_H4He2LiBe2B
_symmetry_space_group_name_H-M   'P 1'
_cell_length_a   8.45153669
_cell_length_b   9.04004691
_cell_length_c   11.92596742
_cell_angle_alpha   90.00000000
_cell_angle_beta   90.00000000
_cell_angle_gamma   90.00000000
_symmetry_Int_Tables_number   1
_chemical_formula_structural   H4He2LiBe2B
_chemical_formula_sum   'H16 He8 Li4 Be8 B4'
_cell_volume   911.17119888
_cell_formula_units_Z   4
loop_
 _symmetry_equiv_pos_site_id
 _symmetry_equiv_pos_as_xyz
  1  'x, y, z'
loop_
 _atom_site_type_symbol
 _atom_site_label
 _atom_site_symmetry_multiplicity
 _atom_site_fract_x
 _atom_site_fract_y
 _atom_site_fract_z
 _atom_site_occupancy
  H  H0  1  0.79814750  0.00000000  0.07586720  1
  H  H1  1  0.20185250  -0.00000000  0.92413280  1
  H  H2  1  0.70185250  -0.00000000  0.57586720  1
  H  H3  1  0.29814750  0.00000000  0.42413280  1
  H  H4  1  0.74110638  0.50000000  0.05967696  1
  H  H5  1  0.25889362  0.50000000  0.94032304  1
  H  H6  1  0.75889362  0.50000000  0.55967696  1
  H  H7  1  0.24110638  0.50000000  0.44032304  1
  H  H8  1  0.11592121  0.25367237  0.18622212  1
  H  H9  1  0.88407879  0.25367237  0.81377788  1
  H  H10  1  0.38407879  0.74632763  0.68622212  1
  H  H11  1  0.61592121  0.74632763  0.31377788  1
  H  H12  1  0.88407879  0.74632763  0.81377788  1
  H  H13  1  0.11592121  0.74632763  0.18622212  1
  H  H14  1  0.61592121  0.25367237  0.31377788  1
  H  H15  1  0.38407879  0.25367237  0.68622212  1
  He  He16  1  0.08663299  0.29850117  0.47718877  1
  He  He17  1  0.91336701  0.29850117  0.52281123  1
  He  He18  1  0.41336701  0.70149883  0.97718877  1
  He  He19  1  0.58663299  0.70149883  0.02281123  1
  He  He20  1  0.91336701  0.70149883  0.52281123  1
  He  He21  1  0.08663299  0.70149883  0.47718877  1
  He  He22  1  0.58663299  0.29850117  0.02281123  1
  He  He23  1  0.41336701  0.29850117  0.97718877  1
  Li  Li24  1  0.00000000  0.22582171  -0.00000000  1
  Li  Li25  1  0.50000000  0.77417829  0.50000000  1
  Li  Li26  1  -0.00000000  0.77417829  -0.00000000  1
  Li  Li27  1  0.50000000  0.22582171  0.50000000  1
  Be  Be28  1  0.91926148  0.00000000  0.34383592  1
  Be  Be29  1  0.08073852  0.00000000  0.65616408  1
  Be  Be30  1  0.58073852  0.00000000  0.84383592  1
  Be  Be31  1  0.41926148  0.00000000  0.15616408  1
  Be  Be32  1  0.89344140  0.50000000  0.30374407  1
  Be  Be33  1  0.10655860  0.50000000  0.69625593  1
  Be  Be34  1  0.60655860  0.50000000  0.80374407  1
  Be  Be35  1  0.39344140  0.50000000  0.19625593  1
  B  B36  1  0.00000000  0.23187344  0.50000000  1
  B  B37  1  0.50000000  0.76812656  -0.00000000  1
  B  B38  1  -0.00000000  0.76812656  0.50000000  1
  B  B39  1  0.50000000  0.23187344  -0.00000000  1
