# generated using pymatgen
data_HHe3Li12
_symmetry_space_group_name_H-M   'P 1'
_cell_length_a   9.77991774
_cell_length_b   9.77991774
_cell_length_c   19.42537080
_cell_angle_alpha   90.00000000
_cell_angle_beta   90.00000000
_cell_angle_gamma   90.00000000
_symmetry_Int_Tables_number   1
_chemical_formula_structural   HHe3Li12
_chemical_formula_sum   'H4 He12 Li48'
_cell_volume   1857.97437981
_cell_formula_units_Z   4
loop_
 _symmetry_equiv_pos_site_id
 _symmetry_equiv_pos_as_xyz
  1  'x, y, z'
loop_
 _atom_site_type_symbol
 _atom_site_label
 _atom_site_symmetry_multiplicity
 _atom_site_fract_x
 _atom_site_fract_y
 _atom_site_fract_z
 _atom_site_occupancy
  H  H0  1  0.00000000  0.00000000  0.36998388  1
  H  H1  1  -0.00000000  0.00000000  0.63001612  1
  H  H2  1  0.50000000  0.50000000  0.13001612  1
  H  H3  1  0.50000000  0.50000000  0.86998388  1
  He  He4  1  0.00000000  0.50000000  0.08839718  1
  He  He5  1  0.50000000  0.00000000  0.91160282  1
  He  He6  1  0.50000000  0.00000000  0.41160282  1
  He  He7  1  -0.00000000  0.50000000  0.58839718  1
  He  He8  1  0.00000000  0.50000000  0.26060742  1
  He  He9  1  0.50000000  0.00000000  0.73939258  1
  He  He10  1  0.50000000  0.00000000  0.23939258  1
  He  He11  1  0.00000000  0.50000000  0.76060742  1
  He  He12  1  0.00000000  0.50000000  0.42839798  1
  He  He13  1  0.50000000  0.00000000  0.57160202  1
  He  He14  1  0.50000000  0.00000000  0.07160202  1
  He  He15  1  0.00000000  0.50000000  0.92839798  1
  Li  Li16  1  0.01760791  0.72000079  0.00888526  1
  Li  Li17  1  0.98239209  0.27999921  0.00888526  1
  Li  Li18  1  0.72000079  0.98239209  0.99111474  1
  Li  Li19  1  0.27999921  0.01760791  0.99111474  1
  Li  Li20  1  0.48239209  0.22000079  0.49111474  1
  Li  Li21  1  0.51760791  0.77999921  0.49111474  1
  Li  Li22  1  0.77999921  0.48239209  0.50888526  1
  Li  Li23  1  0.22000079  0.51760791  0.50888526  1
  Li  Li24  1  0.80396771  0.60547154  0.00886107  1
  Li  Li25  1  0.19603229  0.39452846  0.00886107  1
  Li  Li26  1  0.60547154  0.19603229  0.99113893  1
  Li  Li27  1  0.39452846  0.80396771  0.99113893  1
  Li  Li28  1  0.69603229  0.10547154  0.49113893  1
  Li  Li29  1  0.30396771  0.89452846  0.49113893  1
  Li  Li30  1  0.89452846  0.69603229  0.50886107  1
  Li  Li31  1  0.10547154  0.30396771  0.50886107  1
  Li  Li32  1  0.18330675  0.62269905  0.16897169  1
  Li  Li33  1  0.81669325  0.37730095  0.16897169  1
  Li  Li34  1  0.62269905  0.81669325  0.83102831  1
  Li  Li35  1  0.37730095  0.18330675  0.83102831  1
  Li  Li36  1  0.31669325  0.12269905  0.33102831  1
  Li  Li37  1  0.68330675  0.87730095  0.33102831  1
  Li  Li38  1  0.87730095  0.31669325  0.66897169  1
  Li  Li39  1  0.12269905  0.68330675  0.66897169  1
  Li  Li40  1  0.95418584  0.70958827  0.18107726  1
  Li  Li41  1  0.04581416  0.29041173  0.18107726  1
  Li  Li42  1  0.70958827  0.04581416  0.81892274  1
  Li  Li43  1  0.29041173  0.95418584  0.81892274  1
  Li  Li44  1  0.54581416  0.20958827  0.31892274  1
  Li  Li45  1  0.45418584  0.79041173  0.31892274  1
  Li  Li46  1  0.79041173  0.54581416  0.68107726  1
  Li  Li47  1  0.20958827  0.45418584  0.68107726  1
  Li  Li48  1  0.12558645  0.68170126  0.34812679  1
  Li  Li49  1  0.87441355  0.31829874  0.34812679  1
  Li  Li50  1  0.68170126  0.87441355  0.65187321  1
  Li  Li51  1  0.31829874  0.12558645  0.65187321  1
  Li  Li52  1  0.37441355  0.18170126  0.15187321  1
  Li  Li53  1  0.62558645  0.81829874  0.15187321  1
  Li  Li54  1  0.81829874  0.37441355  0.84812679  1
  Li  Li55  1  0.18170126  0.62558645  0.84812679  1
  Li  Li56  1  0.78912838  0.54960615  0.33784735  1
  Li  Li57  1  0.21087162  0.45039385  0.33784735  1
  Li  Li58  1  0.54960615  0.21087162  0.66215265  1
  Li  Li59  1  0.45039385  0.78912838  0.66215265  1
  Li  Li60  1  0.71087162  0.04960615  0.16215265  1
  Li  Li61  1  0.28912838  0.95039385  0.16215265  1
  Li  Li62  1  0.95039385  0.71087162  0.83784735  1
  Li  Li63  1  0.04960615  0.28912838  0.83784735  1
