# generated using pymatgen
data_HHe12LiBe10B
_symmetry_space_group_name_H-M   'P 1'
_cell_length_a   7.14548305
_cell_length_b   7.14548305
_cell_length_c   7.14548305
_cell_angle_alpha   60.00000000
_cell_angle_beta   60.00000000
_cell_angle_gamma   60.00000000
_symmetry_Int_Tables_number   1
_chemical_formula_structural   HHe12LiBe10B
_chemical_formula_sum   'H1 He12 Li1 Be10 B1'
_cell_volume   257.97628390
_cell_formula_units_Z   1
loop_
 _symmetry_equiv_pos_site_id
 _symmetry_equiv_pos_as_xyz
  1  'x, y, z'
loop_
 _atom_site_type_symbol
 _atom_site_label
 _atom_site_symmetry_multiplicity
 _atom_site_fract_x
 _atom_site_fract_y
 _atom_site_fract_z
 _atom_site_occupancy
  H  H0  1  0.75000000  0.75000000  0.75000000  1
  He  He1  1  0.85414683  0.62133344  0.26225986  1
  He  He2  1  0.26225986  0.26225986  0.85414683  1
  He  He3  1  0.26225986  0.26225986  0.62133344  1
  He  He4  1  0.62133344  0.85414683  0.26225986  1
  He  He5  1  0.26225986  0.62133344  0.85414683  1
  He  He6  1  0.62133344  0.26225986  0.26225986  1
  He  He7  1  0.85414683  0.26225986  0.26225986  1
  He  He8  1  0.26225986  0.85414683  0.62133344  1
  He  He9  1  0.26225986  0.62133344  0.26225986  1
  He  He10  1  0.85414683  0.26225986  0.62133344  1
  He  He11  1  0.62133344  0.26225986  0.85414683  1
  He  He12  1  0.26225986  0.85414683  0.26225986  1
  Li  Li13  1  -0.00000000  -0.00000000  -0.00000000  1
  Be  Be14  1  0.79325295  0.79325295  0.20674705  1
  Be  Be15  1  0.20674705  0.20674705  0.79325295  1
  Be  Be16  1  0.20674705  0.79325295  0.79325295  1
  Be  Be17  1  0.79325295  0.20674705  0.20674705  1
  Be  Be18  1  0.20674705  0.79325295  0.20674705  1
  Be  Be19  1  0.79325295  0.20674705  0.79325295  1
  Be  Be20  1  0.33924279  0.98227164  0.33924279  1
  Be  Be21  1  0.33924279  0.33924279  0.33924279  1
  Be  Be22  1  0.33924279  0.33924279  0.98227164  1
  Be  Be23  1  0.98227164  0.33924279  0.33924279  1
  B  B24  1  0.25000000  0.25000000  0.25000000  1
