# generated using pymatgen
data_HHe2
_symmetry_space_group_name_H-M   'P 1'
_cell_length_a   4.16509913
_cell_length_b   4.16509913
_cell_length_c   4.16509913
_cell_angle_alpha   107.74285373
_cell_angle_beta   107.74285373
_cell_angle_gamma   112.98617356
_symmetry_Int_Tables_number   1
_chemical_formula_structural   HHe2
_chemical_formula_sum   'H2 He4'
_cell_volume   55.46493159
_cell_formula_units_Z   2
loop_
 _symmetry_equiv_pos_site_id
 _symmetry_equiv_pos_as_xyz
  1  'x, y, z'
loop_
 _atom_site_type_symbol
 _atom_site_label
 _atom_site_symmetry_multiplicity
 _atom_site_fract_x
 _atom_site_fract_y
 _atom_site_fract_z
 _atom_site_occupancy
  H  H0  1  0.25000000  0.25000000  0.00000000  1
  H  H1  1  0.75000000  0.75000000  0.00000000  1
  He  He2  1  0.18494273  0.31505727  0.50000000  1
  He  He3  1  0.81505727  0.68494273  0.50000000  1
  He  He4  1  0.31505727  0.81505727  0.13011455  1
  He  He5  1  0.68494273  0.18494273  0.86988545  1
