# generated using pymatgen
data_HHe11Li6
_symmetry_space_group_name_H-M   'P 1'
_cell_length_a   5.91596232
_cell_length_b   5.91596232
_cell_length_c   13.56509588
_cell_angle_alpha   90.00000000
_cell_angle_beta   90.00000000
_cell_angle_gamma   120.00000000
_symmetry_Int_Tables_number   1
_chemical_formula_structural   HHe11Li6
_chemical_formula_sum   'H2 He22 Li12'
_cell_volume   411.15378999
_cell_formula_units_Z   2
loop_
 _symmetry_equiv_pos_site_id
 _symmetry_equiv_pos_as_xyz
  1  'x, y, z'
loop_
 _atom_site_type_symbol
 _atom_site_label
 _atom_site_symmetry_multiplicity
 _atom_site_fract_x
 _atom_site_fract_y
 _atom_site_fract_z
 _atom_site_occupancy
  H  H0  1  0.66666700  0.33333400  0.25193938  1
  H  H1  1  0.33333300  0.66666600  0.75193938  1
  He  He2  1  0.34759020  0.17379836  0.42481564  1
  He  He3  1  0.82620164  0.17379183  0.42481564  1
  He  He4  1  0.82620817  0.65240980  0.42481564  1
  He  He5  1  0.65240980  0.82620164  0.92481564  1
  He  He6  1  0.17379836  0.82620817  0.92481564  1
  He  He7  1  0.17379183  0.34759020  0.92481564  1
  He  He8  1  0.34779521  0.17390251  0.07990081  1
  He  He9  1  0.82609749  0.17389271  0.07990081  1
  He  He10  1  0.82610729  0.65220479  0.07990081  1
  He  He11  1  0.65220479  0.82609749  0.57990081  1
  He  He12  1  0.17390251  0.82610729  0.57990081  1
  He  He13  1  0.17389271  0.34779521  0.57990081  1
  He  He14  1  0.29640641  0.14822196  0.75242593  1
  He  He15  1  0.85177804  0.14818445  0.75242593  1
  He  He16  1  0.85181555  0.70359359  0.75242593  1
  He  He17  1  0.70359359  0.85177804  0.25242593  1
  He  He18  1  0.14822196  0.85181555  0.25242593  1
  He  He19  1  0.14818445  0.29640641  0.25242593  1
  He  He20  1  0.66666700  0.33333400  0.91774254  1
  He  He21  1  0.33333300  0.66666600  0.41774254  1
  He  He22  1  0.66666700  0.33333400  0.58660379  1
  He  He23  1  0.33333300  0.66666600  0.08660379  1
  Li  Li24  1  0.99989440  0.49994811  0.50233672  1
  Li  Li25  1  0.50005189  0.49994629  0.50233672  1
  Li  Li26  1  0.50005371  0.00010560  0.50233672  1
  Li  Li27  1  0.00010560  0.50005189  0.00233672  1
  Li  Li28  1  0.49994811  0.50005371  0.00233672  1
  Li  Li29  1  0.49994629  0.99989440  0.00233672  1
  Li  Li30  1  0.00000000  -0.00000000  0.35660929  1
  Li  Li31  1  -0.00000000  0.00000000  0.85660929  1
  Li  Li32  1  -0.00000000  0.00000000  0.14823777  1
  Li  Li33  1  -0.00000000  0.00000000  0.64823777  1
  Li  Li34  1  0.66666700  0.33333400  0.75322994  1
  Li  Li35  1  0.33333300  0.66666600  0.25322994  1
