# generated using pymatgen
data_H5He3
_symmetry_space_group_name_H-M   'P 1'
_cell_length_a   7.89431021
_cell_length_b   7.89424458
_cell_length_c   5.49980753
_cell_angle_alpha   90.00000000
_cell_angle_beta   90.00000000
_cell_angle_gamma   120.00027498
_symmetry_Int_Tables_number   1
_chemical_formula_structural   H5He3
_chemical_formula_sum   'H10 He6'
_cell_volume   296.82582609
_cell_formula_units_Z   2
loop_
 _symmetry_equiv_pos_site_id
 _symmetry_equiv_pos_as_xyz
  1  'x, y, z'
loop_
 _atom_site_type_symbol
 _atom_site_label
 _atom_site_symmetry_multiplicity
 _atom_site_fract_x
 _atom_site_fract_y
 _atom_site_fract_z
 _atom_site_occupancy
  H  H0  1  0.66666860  0.33333720  0.00000000  1
  H  H1  1  0.33333140  0.66666280  0.50000000  1
  H  H2  1  0.33333140  0.66666280  0.00000000  1
  H  H3  1  0.66666860  0.33333720  0.50000000  1
  H  H4  1  0.00000144  0.74745015  0.25000000  1
  H  H5  1  0.25255129  0.25254985  0.25000000  1
  H  H6  1  0.74744719  -0.00000000  0.25000000  1
  H  H7  1  0.99999856  0.25254985  0.75000000  1
  H  H8  1  0.74744871  0.74745015  0.75000000  1
  H  H9  1  0.25255281  0.00000000  0.75000000  1
  He  He10  1  0.00000254  0.39078434  0.25000000  1
  He  He11  1  0.60921820  0.60921566  0.25000000  1
  He  He12  1  0.39078181  -0.00000000  0.25000000  1
  He  He13  1  -0.00000254  0.60921566  0.75000000  1
  He  He14  1  0.39078180  0.39078434  0.75000000  1
  He  He15  1  0.60921819  -0.00000000  0.75000000  1
