# generated using pymatgen
data_H3HeLi8
_symmetry_space_group_name_H-M   'P 1'
_cell_length_a   5.27237517
_cell_length_b   5.27237517
_cell_length_c   7.90713635
_cell_angle_alpha   87.28290553
_cell_angle_beta   87.28290553
_cell_angle_gamma   63.03581368
_symmetry_Int_Tables_number   1
_chemical_formula_structural   H3HeLi8
_chemical_formula_sum   'H3 He1 Li8'
_cell_volume   195.60431127
_cell_formula_units_Z   1
loop_
 _symmetry_equiv_pos_site_id
 _symmetry_equiv_pos_as_xyz
  1  'x, y, z'
loop_
 _atom_site_type_symbol
 _atom_site_label
 _atom_site_symmetry_multiplicity
 _atom_site_fract_x
 _atom_site_fract_y
 _atom_site_fract_z
 _atom_site_occupancy
  H  H0  1  0.00000000  0.00000000  0.50000000  1
  H  H1  1  0.63735089  0.63735089  0.70591484  1
  H  H2  1  0.36264911  0.36264911  0.29408516  1
  He  He3  1  0.00000000  0.00000000  0.00000000  1
  Li  Li4  1  0.21453638  0.21453638  0.42912365  1
  Li  Li5  1  0.78546362  0.78546362  0.57087635  1
  Li  Li6  1  0.68646554  0.68646554  0.90037456  1
  Li  Li7  1  0.31353446  0.31353446  0.09962544  1
  Li  Li8  1  0.28284527  0.78588679  0.67700478  1
  Li  Li9  1  0.21411321  0.71715473  0.32299522  1
  Li  Li10  1  0.71715473  0.21411321  0.32299522  1
  Li  Li11  1  0.78588679  0.28284527  0.67700478  1
