# generated using pymatgen
data_H3He4
_symmetry_space_group_name_H-M   'P 1'
_cell_length_a   5.10816477
_cell_length_b   5.10815133
_cell_length_c   9.99978007
_cell_angle_alpha   90.00007371
_cell_angle_beta   89.99997902
_cell_angle_gamma   146.45735351
_symmetry_Int_Tables_number   1
_chemical_formula_structural   H3He4
_chemical_formula_sum   'H6 He8'
_cell_volume   144.17720030
_cell_formula_units_Z   2
loop_
 _symmetry_equiv_pos_site_id
 _symmetry_equiv_pos_as_xyz
  1  'x, y, z'
loop_
 _atom_site_type_symbol
 _atom_site_label
 _atom_site_symmetry_multiplicity
 _atom_site_fract_x
 _atom_site_fract_y
 _atom_site_fract_z
 _atom_site_occupancy
  H  H0  1  0.88050105  0.62048116  0.74999945  1
  H  H1  1  0.12043042  0.38044792  0.24999934  1
  H  H2  1  0.63210566  0.86863651  0.92415741  1
  H  H3  1  0.36876318  0.13223037  0.42415849  1
  H  H4  1  0.63224164  0.86877087  0.57584289  1
  H  H5  1  0.36862911  0.13209896  0.07584172  1
  He  He6  1  0.00038951  0.50039205  0.99999856  1
  He  He7  1  0.00049556  0.50049623  0.50000248  1
  He  He8  1  0.53700877  0.96395790  0.74999993  1
  He  He9  1  0.46392114  0.03696835  0.25000001  1
  He  He10  1  0.27180379  0.22894768  0.88689962  1
  He  He11  1  0.72907136  0.77192980  0.38689925  1
  He  He12  1  0.27193662  0.22907940  0.61310015  1
  He  He13  1  0.72894218  0.77180282  0.11310070  1
