# generated using pymatgen
data_HHe4Li
_symmetry_space_group_name_H-M   'P 1'
_cell_length_a   6.00624460
_cell_length_b   6.00624460
_cell_length_c   6.00624460
_cell_angle_alpha   106.19121160
_cell_angle_beta   106.19121160
_cell_angle_gamma   116.25151383
_symmetry_Int_Tables_number   1
_chemical_formula_structural   HHe4Li
_chemical_formula_sum   'H2 He8 Li2'
_cell_volume   165.02467224
_cell_formula_units_Z   2
loop_
 _symmetry_equiv_pos_site_id
 _symmetry_equiv_pos_as_xyz
  1  'x, y, z'
loop_
 _atom_site_type_symbol
 _atom_site_label
 _atom_site_symmetry_multiplicity
 _atom_site_fract_x
 _atom_site_fract_y
 _atom_site_fract_z
 _atom_site_occupancy
  H  H0  1  -0.00000000  -0.00000000  -0.00000000  1
  H  H1  1  0.25000000  0.75000000  0.50000000  1
  He  He2  1  0.32394640  0.50850947  0.18456307  1
  He  He3  1  0.32394640  0.13938332  0.81543693  1
  He  He4  1  0.75850947  0.07394640  0.68456307  1
  He  He5  1  0.38938332  0.07394640  0.31543693  1
  He  He6  1  0.92605360  0.61061668  0.68456307  1
  He  He7  1  0.92605360  0.24149053  0.31543693  1
  He  He8  1  0.49149053  0.67605360  0.81543693  1
  He  He9  1  0.86061668  0.67605360  0.18456307  1
  Li  Li10  1  0.50000000  0.50000000  0.00000000  1
  Li  Li11  1  0.75000000  0.25000000  0.50000000  1
