# generated using pymatgen
data_H13He
_symmetry_space_group_name_H-M   'P 1'
_cell_length_a   7.24170368
_cell_length_b   7.24170368
_cell_length_c   7.24170368
_cell_angle_alpha   60.00000000
_cell_angle_beta   60.00000000
_cell_angle_gamma   60.00000000
_symmetry_Int_Tables_number   1
_chemical_formula_structural   H13He
_chemical_formula_sum   'H26 He2'
_cell_volume   268.53892885
_cell_formula_units_Z   2
loop_
 _symmetry_equiv_pos_site_id
 _symmetry_equiv_pos_as_xyz
  1  'x, y, z'
loop_
 _atom_site_type_symbol
 _atom_site_label
 _atom_site_symmetry_multiplicity
 _atom_site_fract_x
 _atom_site_fract_y
 _atom_site_fract_z
 _atom_site_occupancy
  H  H0  1  0.00000000  0.00000000  0.00000000  1
  H  H1  1  0.50000000  0.50000000  0.50000000  1
  H  H2  1  0.93820863  0.71026355  0.28973645  1
  H  H3  1  0.28973645  0.06179137  0.93820863  1
  H  H4  1  0.71026355  0.93820863  0.06179137  1
  H  H5  1  0.06179137  0.28973645  0.71026355  1
  H  H6  1  0.06179137  0.93820863  0.28973645  1
  H  H7  1  0.71026355  0.28973645  0.93820863  1
  H  H8  1  0.28973645  0.71026355  0.06179137  1
  H  H9  1  0.93820863  0.06179137  0.71026355  1
  H  H10  1  0.71026355  0.06179137  0.28973645  1
  H  H11  1  0.06179137  0.71026355  0.93820863  1
  H  H12  1  0.93820863  0.28973645  0.06179137  1
  H  H13  1  0.28973645  0.93820863  0.71026355  1
  H  H14  1  0.21026355  0.78973645  0.56179137  1
  H  H15  1  0.56179137  0.43820863  0.21026355  1
  H  H16  1  0.43820863  0.56179137  0.78973645  1
  H  H17  1  0.78973645  0.21026355  0.43820863  1
  H  H18  1  0.21026355  0.56179137  0.43820863  1
  H  H19  1  0.56179137  0.21026355  0.78973645  1
  H  H20  1  0.43820863  0.78973645  0.21026355  1
  H  H21  1  0.78973645  0.43820863  0.56179137  1
  H  H22  1  0.21026355  0.43820863  0.78973645  1
  H  H23  1  0.56179137  0.78973645  0.43820863  1
  H  H24  1  0.43820863  0.21026355  0.56179137  1
  H  H25  1  0.78973645  0.56179137  0.21026355  1
  He  He26  1  0.75000000  0.75000000  0.75000000  1
  He  He27  1  0.25000000  0.25000000  0.25000000  1
