# generated using pymatgen
data_HHe2(LiBe)2
_symmetry_space_group_name_H-M   'P 1'
_cell_length_a   3.96645921
_cell_length_b   3.96645921
_cell_length_c   8.39884052
_cell_angle_alpha   90.00162618
_cell_angle_beta   89.99837382
_cell_angle_gamma   120.00682506
_symmetry_Int_Tables_number   1
_chemical_formula_structural   HHe2(LiBe)2
_chemical_formula_sum   'H1 He2 Li2 Be2'
_cell_volume   114.42635915
_cell_formula_units_Z   1
loop_
 _symmetry_equiv_pos_site_id
 _symmetry_equiv_pos_as_xyz
  1  'x, y, z'
loop_
 _atom_site_type_symbol
 _atom_site_label
 _atom_site_symmetry_multiplicity
 _atom_site_fract_x
 _atom_site_fract_y
 _atom_site_fract_z
 _atom_site_occupancy
  H  H0  1  -0.00000000  -0.00000000  0.50000000  1
  He  He1  1  0.99997828  0.00002172  0.35262624  1
  He  He2  1  0.00002172  0.99997828  0.64737376  1
  Li  Li3  1  0.33334345  0.66665655  0.89747091  1
  Li  Li4  1  0.66665655  0.33334345  0.10252909  1
  Be  Be5  1  0.33336117  0.66663883  0.18148394  1
  Be  Be6  1  0.66663883  0.33336117  0.81851606  1
