# generated using pymatgen
data_H3He5
_symmetry_space_group_name_H-M   'P 1'
_cell_length_a   8.50980054
_cell_length_b   8.50980054
_cell_length_c   5.79921233
_cell_angle_alpha   90.00000000
_cell_angle_beta   90.00000000
_cell_angle_gamma   120.00084603
_symmetry_Int_Tables_number   1
_chemical_formula_structural   H3He5
_chemical_formula_sum   'H6 He10'
_cell_volume   363.69279776
_cell_formula_units_Z   2
loop_
 _symmetry_equiv_pos_site_id
 _symmetry_equiv_pos_as_xyz
  1  'x, y, z'
loop_
 _atom_site_type_symbol
 _atom_site_label
 _atom_site_symmetry_multiplicity
 _atom_site_fract_x
 _atom_site_fract_y
 _atom_site_fract_z
 _atom_site_occupancy
  H  H0  1  0.61258458  0.00000769  0.25000000  1
  H  H1  1  0.00000769  0.61258458  0.25000000  1
  H  H2  1  0.38741214  0.38741214  0.25000000  1
  H  H3  1  0.38741542  0.99999231  0.75000000  1
  H  H4  1  0.99999231  0.38741542  0.75000000  1
  H  H5  1  0.61258786  0.61258786  0.75000000  1
  He  He6  1  0.33333940  0.66666060  0.00000000  1
  He  He7  1  0.66666060  0.33333940  0.50000000  1
  He  He8  1  0.66666060  0.33333940  -0.00000000  1
  He  He9  1  0.33333940  0.66666060  0.50000000  1
  He  He10  1  0.25337893  0.00001051  0.25000000  1
  He  He11  1  0.00001051  0.25337893  0.25000000  1
  He  He12  1  0.74660867  0.74660867  0.25000000  1
  He  He13  1  0.74662107  0.99998949  0.75000000  1
  He  He14  1  0.99998949  0.74662107  0.75000000  1
  He  He15  1  0.25339133  0.25339133  0.75000000  1
