# generated using pymatgen
data_HHe2Li2Be
_symmetry_space_group_name_H-M   'P 1'
_cell_length_a   3.87708466
_cell_length_b   3.87708466
_cell_length_c   17.64100030
_cell_angle_alpha   88.97932585
_cell_angle_beta   88.97932585
_cell_angle_gamma   58.64401008
_symmetry_Int_Tables_number   1
_chemical_formula_structural   HHe2Li2Be
_chemical_formula_sum   'H2 He4 Li4 Be2'
_cell_volume   226.39974769
_cell_formula_units_Z   2
loop_
 _symmetry_equiv_pos_site_id
 _symmetry_equiv_pos_as_xyz
  1  'x, y, z'
loop_
 _atom_site_type_symbol
 _atom_site_label
 _atom_site_symmetry_multiplicity
 _atom_site_fract_x
 _atom_site_fract_y
 _atom_site_fract_z
 _atom_site_occupancy
  H  H0  1  0.50000000  -0.00000000  0.50000000  1
  H  H1  1  0.00000000  0.50000000  -0.00000000  1
  He  He2  1  0.79139087  0.58693621  0.88958238  1
  He  He3  1  0.41306379  0.20860913  0.61041762  1
  He  He4  1  0.20860913  0.41306379  0.11041762  1
  He  He5  1  0.58693621  0.79139087  0.38958238  1
  Li  Li6  1  0.69442508  0.62770578  0.82584617  1
  Li  Li7  1  0.37229422  0.30557492  0.67415383  1
  Li  Li8  1  0.30557492  0.37229422  0.17415383  1
  Li  Li9  1  0.62770578  0.69442508  0.32584617  1
  Be  Be10  1  0.95720618  0.04279382  0.25000000  1
  Be  Be11  1  0.04279382  0.95720618  0.75000000  1
