# generated using pymatgen
data_HHe7Li19
_symmetry_space_group_name_H-M   'P 1'
_cell_length_a   6.31930735
_cell_length_b   6.31930549
_cell_length_c   20.31554063
_cell_angle_alpha   89.99997176
_cell_angle_beta   90.00006157
_cell_angle_gamma   120.00046895
_symmetry_Int_Tables_number   1
_chemical_formula_structural   HHe7Li19
_chemical_formula_sum   'H2 He14 Li38'
_cell_volume   702.58001644
_cell_formula_units_Z   2
loop_
 _symmetry_equiv_pos_site_id
 _symmetry_equiv_pos_as_xyz
  1  'x, y, z'
loop_
 _atom_site_type_symbol
 _atom_site_label
 _atom_site_symmetry_multiplicity
 _atom_site_fract_x
 _atom_site_fract_y
 _atom_site_fract_z
 _atom_site_occupancy
  H  H0  1  0.00000299  0.99999729  0.99904651  1
  H  H1  1  0.66667047  0.33332994  0.30737302  1
  He  He2  1  0.33329624  0.31207298  0.15321982  1
  He  He3  1  0.68793036  0.02121519  0.15321987  1
  He  He4  1  0.97878816  0.66670409  0.15321977  1
  He  He5  1  0.33269530  0.02413081  0.46508251  1
  He  He6  1  0.97586470  0.30855044  0.46508215  1
  He  He7  1  0.69144580  0.66730362  0.46508259  1
  He  He8  1  0.33331729  0.02491903  0.65325583  1
  He  He9  1  0.97507662  0.30838498  0.65325577  1
  He  He10  1  0.69161097  0.66668061  0.65325563  1
  He  He11  1  0.33399469  0.02475649  0.84142138  1
  He  He12  1  0.97523911  0.30922383  0.84142169  1
  He  He13  1  0.69077244  0.66600396  0.84142122  1
  He  He14  1  0.00000428  0.99999623  0.31123272  1
  He  He15  1  0.66667074  0.33332891  0.99528690  1
  Li  Li16  1  0.09065700  0.42398761  0.15318592  1
  Li  Li17  1  0.57600703  0.66665827  0.15318583  1
  Li  Li18  1  0.33334268  0.90933657  0.15318605  1
  Li  Li19  1  0.08773741  0.66619095  0.45965652  1
  Li  Li20  1  0.33380772  0.42153646  0.45965659  1
  Li  Li21  1  0.57847020  0.91226771  0.45965698  1
  Li  Li22  1  0.09019915  0.66666828  0.65323818  1
  Li  Li23  1  0.33333052  0.42352051  0.65323776  1
  Li  Li24  1  0.57648319  0.90980521  0.65323824  1
  Li  Li25  1  0.08824566  0.66712479  0.84682887  1
  Li  Li26  1  0.33287447  0.42110860  0.84682975  1
  Li  Li27  1  0.57889780  0.91176154  0.84682857  1
  Li  Li28  1  0.39160089  0.28950522  0.05903346  1
  Li  Li29  1  0.71049392  0.10208338  0.05903338  1
  Li  Li30  1  0.89791450  0.60839958  0.05903354  1
  Li  Li31  1  0.27506187  0.23140588  0.24740228  1
  Li  Li32  1  0.76859453  0.04364315  0.24740232  1
  Li  Li33  1  0.95635593  0.72493956  0.24740216  1
  Li  Li34  1  0.27856749  0.03938985  0.36217648  1
  Li  Li35  1  0.96060775  0.23916216  0.36217654  1
  Li  Li36  1  0.76083953  0.72143167  0.36217691  1
  Li  Li37  1  0.30166172  0.04074058  0.75018444  1
  Li  Li38  1  0.95926256  0.26091472  0.75018447  1
  Li  Li39  1  0.73908846  0.69833740  0.75018440  1
  Li  Li40  1  0.36486814  0.07240741  0.55629428  1
  Li  Li41  1  0.92759376  0.29245139  0.55629426  1
  Li  Li42  1  0.70754976  0.63513107  0.55629418  1
  Li  Li43  1  0.38811235  0.09440732  0.94424819  1
  Li  Li44  1  0.90559150  0.29369228  0.94424840  1
  Li  Li45  1  0.70630993  0.61188700  0.94424808  1
  Li  Li46  1  0.00000372  0.99999548  0.13071100  1
  Li  Li47  1  0.00000433  0.99999684  0.47067749  1
  Li  Li48  1  0.00000255  0.99999605  0.64338591  1
  Li  Li49  1  0.00000367  0.99999576  0.86762042  1
  Li  Li50  1  0.66667012  0.33332992  0.17564974  1
  Li  Li51  1  0.66666876  0.33332989  0.43888367  1
  Li  Li52  1  0.66666941  0.33333098  0.66303114  1
  Li  Li53  1  0.66666988  0.33333054  0.83571619  1
