# generated using pymatgen
data_HHe2Li
_symmetry_space_group_name_H-M   'P 1'
_cell_length_a   7.44012820
_cell_length_b   7.44012820
_cell_length_c   7.44012820
_cell_angle_alpha   134.90403010
_cell_angle_beta   134.90403010
_cell_angle_gamma   65.67935164
_symmetry_Int_Tables_number   1
_chemical_formula_structural   HHe2Li
_chemical_formula_sum   'H2 He4 Li2'
_cell_volume   203.52270045
_cell_formula_units_Z   2
loop_
 _symmetry_equiv_pos_site_id
 _symmetry_equiv_pos_as_xyz
  1  'x, y, z'
loop_
 _atom_site_type_symbol
 _atom_site_label
 _atom_site_symmetry_multiplicity
 _atom_site_fract_x
 _atom_site_fract_y
 _atom_site_fract_z
 _atom_site_occupancy
  H  H0  1  0.46067981  0.46067981  0.00000000  1
  H  H1  1  0.21067981  0.71067981  0.50000000  1
  He  He2  1  0.76932996  0.76932996  0.00000000  1
  He  He3  1  0.51932996  0.01932996  0.50000000  1
  He  He4  1  0.23158269  0.23158269  -0.00000000  1
  He  He5  1  0.98158269  0.48158269  0.50000000  1
  Li  Li6  1  0.99840755  0.99840755  -0.00000000  1
  Li  Li7  1  0.74840755  0.24840755  0.50000000  1
