# generated using pymatgen
data_HHe3
_symmetry_space_group_name_H-M   'P 1'
_cell_length_a   8.10335416
_cell_length_b   8.10335416
_cell_length_c   8.10335416
_cell_angle_alpha   109.47122063
_cell_angle_beta   109.47122063
_cell_angle_gamma   109.47122063
_symmetry_Int_Tables_number   1
_chemical_formula_structural   HHe3
_chemical_formula_sum   'H4 He12'
_cell_volume   409.61190477
_cell_formula_units_Z   4
loop_
 _symmetry_equiv_pos_site_id
 _symmetry_equiv_pos_as_xyz
  1  'x, y, z'
loop_
 _atom_site_type_symbol
 _atom_site_label
 _atom_site_symmetry_multiplicity
 _atom_site_fract_x
 _atom_site_fract_y
 _atom_site_fract_z
 _atom_site_occupancy
  H  H0  1  0.50000000  0.00000000  0.00000000  1
  H  H1  1  0.50000000  0.50000000  0.50000000  1
  H  H2  1  0.00000000  0.00000000  0.50000000  1
  H  H3  1  0.00000000  0.50000000  -0.00000000  1
  He  He4  1  0.34004254  0.84505072  0.18509326  1
  He  He5  1  0.65995746  0.84505072  0.50500819  1
  He  He6  1  0.34004254  0.15494928  0.49499181  1
  He  He7  1  0.65995746  0.15494928  0.81490674  1
  He  He8  1  0.15494928  0.81490674  0.65995746  1
  He  He9  1  0.15494928  0.49499181  0.34004254  1
  He  He10  1  0.84505072  0.50500819  0.65995746  1
  He  He11  1  0.84505072  0.18509326  0.34004254  1
  He  He12  1  0.49499181  0.34004254  0.15494928  1
  He  He13  1  0.81490674  0.65995746  0.15494928  1
  He  He14  1  0.18509326  0.34004254  0.84505072  1
  He  He15  1  0.50500819  0.65995746  0.84505072  1
