# generated using pymatgen
data_H3HeLiBe3B
_symmetry_space_group_name_H-M   'P 1'
_cell_length_a   5.80227385
_cell_length_b   5.80207039
_cell_length_c   6.15862462
_cell_angle_alpha   90.00000000
_cell_angle_beta   90.00000000
_cell_angle_gamma   119.98675864
_symmetry_Int_Tables_number   1
_chemical_formula_structural   H3HeLiBe3B
_chemical_formula_sum   'H6 He2 Li2 Be6 B2'
_cell_volume   179.57815844
_cell_formula_units_Z   2
loop_
 _symmetry_equiv_pos_site_id
 _symmetry_equiv_pos_as_xyz
  1  'x, y, z'
loop_
 _atom_site_type_symbol
 _atom_site_label
 _atom_site_symmetry_multiplicity
 _atom_site_fract_x
 _atom_site_fract_y
 _atom_site_fract_z
 _atom_site_occupancy
  H  H0  1  0.49123983  0.64491174  0.66150064  1
  H  H1  1  0.35504591  0.84629201  0.66145855  1
  H  H2  1  0.15377932  0.50884958  0.66144787  1
  H  H3  1  0.50876017  0.35508826  0.16150064  1
  H  H4  1  0.64495409  0.15370799  0.16145855  1
  H  H5  1  0.84622068  0.49115042  0.16144787  1
  He  He6  1  0.33333867  0.66666824  0.60084839  1
  He  He7  1  0.66666133  0.33333176  0.10084839  1
  Li  Li8  1  0.00000201  0.99999278  0.99710318  1
  Li  Li9  1  0.99999799  0.00000722  0.49710318  1
  Be  Be10  1  0.14132971  0.76523762  0.25154229  1
  Be  Be11  1  0.23495194  0.37614754  0.25157429  1
  Be  Be12  1  0.62387295  0.85860788  0.25158976  1
  Be  Be13  1  0.85867029  0.23476238  0.75154229  1
  Be  Be14  1  0.76504806  0.62385246  0.75157429  1
  Be  Be15  1  0.37612705  0.14139212  0.75158976  1
  B  B16  1  0.33341522  0.66667829  0.30913503  1
  B  B17  1  0.66658478  0.33332171  0.80913503  1
