# generated using pymatgen
data_HHeLi4
_symmetry_space_group_name_H-M   'P 1'
_cell_length_a   4.59914638
_cell_length_b   9.11843956
_cell_length_c   9.19804652
_cell_angle_alpha   67.86415134
_cell_angle_beta   90.00135419
_cell_angle_gamma   90.00092488
_symmetry_Int_Tables_number   1
_chemical_formula_structural   HHeLi4
_chemical_formula_sum   'H2 He2 Li8'
_cell_volume   357.30719814
_cell_formula_units_Z   2
loop_
 _symmetry_equiv_pos_site_id
 _symmetry_equiv_pos_as_xyz
  1  'x, y, z'
loop_
 _atom_site_type_symbol
 _atom_site_label
 _atom_site_symmetry_multiplicity
 _atom_site_fract_x
 _atom_site_fract_y
 _atom_site_fract_z
 _atom_site_occupancy
  H  H0  1  0.47209163  0.74990142  0.75000085  1
  H  H1  1  0.52786335  0.24990861  0.25000713  1
  He  He2  1  0.00012677  0.00001703  0.00039360  1
  He  He3  1  0.00013285  0.49985718  0.50004225  1
  Li  Li4  1  0.97180826  0.99877529  0.29426426  1
  Li  Li5  1  0.97175919  0.50108659  0.20548889  1
  Li  Li6  1  0.02824536  0.00108095  0.70529255  1
  Li  Li7  1  0.02822992  0.49875173  0.79447135  1
  Li  Li8  1  0.60673209  0.76114844  0.04581792  1
  Li  Li9  1  0.60674639  0.73866373  0.45420199  1
  Li  Li10  1  0.39313769  0.23855766  0.95420140  1
  Li  Li11  1  0.39312649  0.26125138  0.54581781  1
