# generated using pymatgen
data_H3He5
_symmetry_space_group_name_H-M   'P 1'
_cell_length_a   9.83784811
_cell_length_b   9.83784811
_cell_length_c   9.83784811
_cell_angle_alpha   131.06757047
_cell_angle_beta   131.06757047
_cell_angle_gamma   71.70574573
_symmetry_Int_Tables_number   1
_chemical_formula_structural   H3He5
_chemical_formula_sum   'H6 He10'
_cell_volume   529.48688366
_cell_formula_units_Z   2
loop_
 _symmetry_equiv_pos_site_id
 _symmetry_equiv_pos_as_xyz
  1  'x, y, z'
loop_
 _atom_site_type_symbol
 _atom_site_label
 _atom_site_symmetry_multiplicity
 _atom_site_fract_x
 _atom_site_fract_y
 _atom_site_fract_z
 _atom_site_occupancy
  H  H0  1  0.25000000  0.25000000  -0.00000000  1
  H  H1  1  0.75000000  0.75000000  0.00000000  1
  H  H2  1  0.88614715  0.38614715  0.27229431  1
  H  H3  1  0.11385285  0.61385285  0.72770569  1
  H  H4  1  0.38614715  0.11385285  0.50000000  1
  H  H5  1  0.61385285  0.88614715  0.50000000  1
  He  He6  1  0.00000000  -0.00000000  0.00000000  1
  He  He7  1  0.50000000  0.50000000  0.00000000  1
  He  He8  1  0.81898384  0.31898384  0.85547801  1
  He  He9  1  0.46350583  0.96350583  0.14452199  1
  He  He10  1  0.31898384  0.46350583  0.50000000  1
  He  He11  1  0.96350583  0.81898384  0.50000000  1
  He  He12  1  0.03649417  0.18101616  0.50000000  1
  He  He13  1  0.68101616  0.53649417  0.50000000  1
  He  He14  1  0.53649417  0.03649417  0.85547801  1
  He  He15  1  0.18101616  0.68101616  0.14452199  1
