# generated using pymatgen
data_H5He8Li2Be
_symmetry_space_group_name_H-M   'P 1'
_cell_length_a   8.00326064
_cell_length_b   8.00326064
_cell_length_c   10.71757403
_cell_angle_alpha   79.40318322
_cell_angle_beta   79.40318322
_cell_angle_gamma   66.71728373
_symmetry_Int_Tables_number   1
_chemical_formula_structural   H5He8Li2Be
_chemical_formula_sum   'H10 He16 Li4 Be2'
_cell_volume   615.10698227
_cell_formula_units_Z   2
loop_
 _symmetry_equiv_pos_site_id
 _symmetry_equiv_pos_as_xyz
  1  'x, y, z'
loop_
 _atom_site_type_symbol
 _atom_site_label
 _atom_site_symmetry_multiplicity
 _atom_site_fract_x
 _atom_site_fract_y
 _atom_site_fract_z
 _atom_site_occupancy
  H  H0  1  0.40596064  0.59403936  0.25000000  1
  H  H1  1  0.59403936  0.40596064  0.75000000  1
  H  H2  1  0.41965059  0.91195351  0.12497381  1
  H  H3  1  0.08804649  0.58034941  0.37502619  1
  H  H4  1  0.58034941  0.08804649  0.87502619  1
  H  H5  1  0.91195351  0.41965059  0.62497381  1
  H  H6  1  0.10126085  0.34599126  0.54530338  1
  H  H7  1  0.65400874  0.89873915  0.95469662  1
  H  H8  1  0.89873915  0.65400874  0.45469662  1
  H  H9  1  0.34599126  0.10126085  0.04530338  1
  He  He10  1  0.21668090  0.36094052  0.30662452  1
  He  He11  1  0.63905948  0.78331910  0.19337548  1
  He  He12  1  0.78331910  0.63905948  0.69337548  1
  He  He13  1  0.36094052  0.21668090  0.80662452  1
  He  He14  1  0.39968008  0.55807591  0.14529214  1
  He  He15  1  0.44192409  0.60031992  0.35470786  1
  He  He16  1  0.60031992  0.44192409  0.85470786  1
  He  He17  1  0.55807591  0.39968008  0.64529214  1
  He  He18  1  0.62803816  0.20293970  0.62067997  1
  He  He19  1  0.79706030  0.37196184  0.87932003  1
  He  He20  1  0.37196184  0.79706030  0.37932003  1
  He  He21  1  0.20293970  0.62803816  0.12067997  1
  He  He22  1  0.31147007  0.99670872  0.08339288  1
  He  He23  1  0.00329128  0.68852993  0.41660712  1
  He  He24  1  0.68852993  0.00329128  0.91660712  1
  He  He25  1  0.99670872  0.31147007  0.58339288  1
  Li  Li26  1  0.27912036  0.39410742  0.16643206  1
  Li  Li27  1  0.60589258  0.72087964  0.33356794  1
  Li  Li28  1  0.72087964  0.60589258  0.83356794  1
  Li  Li29  1  0.39410742  0.27912036  0.66643206  1
  Be  Be30  1  -0.00000000  -0.00000000  0.00000000  1
  Be  Be31  1  0.00000000  -0.00000000  0.50000000  1
