# generated using pymatgen
data_HHe2Li5(BeB2)12
_symmetry_space_group_name_H-M   'P 1'
_cell_length_a   10.52891778
_cell_length_b   10.52891778
_cell_length_c   10.52891778
_cell_angle_alpha   90.00000000
_cell_angle_beta   90.00000000
_cell_angle_gamma   90.00000000
_symmetry_Int_Tables_number   1
_chemical_formula_structural   HHe2Li5(BeB2)12
_chemical_formula_sum   'H2 He4 Li10 Be24 B48'
_cell_volume   1167.21592039
_cell_formula_units_Z   2
loop_
 _symmetry_equiv_pos_site_id
 _symmetry_equiv_pos_as_xyz
  1  'x, y, z'
loop_
 _atom_site_type_symbol
 _atom_site_label
 _atom_site_symmetry_multiplicity
 _atom_site_fract_x
 _atom_site_fract_y
 _atom_site_fract_z
 _atom_site_occupancy
  H  H0  1  -0.00000000  -0.00000000  -0.00000000  1
  H  H1  1  0.50000000  0.50000000  0.50000000  1
  He  He2  1  0.25004991  0.25004991  0.25004991  1
  He  He3  1  0.74995009  0.74995009  0.25004991  1
  He  He4  1  0.74995009  0.25004991  0.74995009  1
  He  He5  1  0.25004991  0.74995009  0.74995009  1
  Li  Li6  1  0.75013877  0.75013877  0.75013877  1
  Li  Li7  1  0.24986123  0.24986123  0.75013877  1
  Li  Li8  1  0.24986123  0.75013877  0.24986123  1
  Li  Li9  1  0.75013877  0.24986123  0.24986123  1
  Li  Li10  1  -0.00000000  0.50000000  0.50000000  1
  Li  Li11  1  0.50000000  0.00000000  0.50000000  1
  Li  Li12  1  0.50000000  0.50000000  -0.00000000  1
  Li  Li13  1  0.50000000  -0.00000000  0.00000000  1
  Li  Li14  1  0.00000000  0.50000000  0.00000000  1
  Li  Li15  1  -0.00000000  0.00000000  0.50000000  1
  Be  Be16  1  0.06263396  0.24560109  0.24866532  1
  Be  Be17  1  0.93736604  0.75439891  0.24866532  1
  Be  Be18  1  0.93736604  0.24560109  0.75133468  1
  Be  Be19  1  0.06263396  0.75439891  0.75133468  1
  Be  Be20  1  0.24866532  0.06263396  0.24560109  1
  Be  Be21  1  0.24866532  0.93736604  0.75439891  1
  Be  Be22  1  0.75133468  0.93736604  0.24560109  1
  Be  Be23  1  0.75133468  0.06263396  0.75439891  1
  Be  Be24  1  0.24560109  0.24866532  0.06263396  1
  Be  Be25  1  0.75439891  0.24866532  0.93736604  1
  Be  Be26  1  0.24560109  0.75133468  0.93736604  1
  Be  Be27  1  0.75439891  0.75133468  0.06263396  1
  Be  Be28  1  0.43760711  0.25450877  0.25141298  1
  Be  Be29  1  0.56239289  0.74549123  0.25141298  1
  Be  Be30  1  0.56239289  0.25450877  0.74858702  1
  Be  Be31  1  0.43760711  0.74549123  0.74858702  1
  Be  Be32  1  0.25141298  0.43760711  0.25450877  1
  Be  Be33  1  0.25141298  0.56239289  0.74549123  1
  Be  Be34  1  0.74858702  0.56239289  0.25450877  1
  Be  Be35  1  0.74858702  0.43760711  0.74549123  1
  Be  Be36  1  0.25450877  0.25141298  0.43760711  1
  Be  Be37  1  0.74549123  0.25141298  0.56239289  1
  Be  Be38  1  0.25450877  0.74858702  0.56239289  1
  Be  Be39  1  0.74549123  0.74858702  0.43760711  1
  B  B40  1  0.99881218  0.14795321  0.21466522  1
  B  B41  1  0.00118782  0.85204679  0.21466522  1
  B  B42  1  0.00118782  0.14795321  0.78533478  1
  B  B43  1  0.99881218  0.85204679  0.78533478  1
  B  B44  1  0.21466522  0.99881218  0.14795321  1
  B  B45  1  0.21466522  0.00118782  0.85204679  1
  B  B46  1  0.78533478  0.00118782  0.14795321  1
  B  B47  1  0.78533478  0.99881218  0.85204679  1
  B  B48  1  0.14795321  0.21466522  0.99881218  1
  B  B49  1  0.85204679  0.21466522  0.00118782  1
  B  B50  1  0.14795321  0.78533478  0.00118782  1
  B  B51  1  0.85204679  0.78533478  0.99881218  1
  B  B52  1  0.50130406  0.35212762  0.28528970  1
  B  B53  1  0.49869594  0.64787238  0.28528970  1
  B  B54  1  0.49869594  0.35212762  0.71471030  1
  B  B55  1  0.50130406  0.64787238  0.71471030  1
  B  B56  1  0.28528970  0.50130406  0.35212762  1
  B  B57  1  0.28528970  0.49869594  0.64787238  1
  B  B58  1  0.71471030  0.49869594  0.35212762  1
  B  B59  1  0.71471030  0.50130406  0.64787238  1
  B  B60  1  0.35212762  0.28528970  0.50130406  1
  B  B61  1  0.64787238  0.28528970  0.49869594  1
  B  B62  1  0.35212762  0.71471030  0.49869594  1
  B  B63  1  0.64787238  0.71471030  0.50130406  1
  B  B64  1  0.00055015  0.34075233  0.28384018  1
  B  B65  1  0.99944985  0.65924767  0.28384018  1
  B  B66  1  0.99944985  0.34075233  0.71615982  1
  B  B67  1  0.00055015  0.65924767  0.71615982  1
  B  B68  1  0.28384018  0.00055015  0.34075233  1
  B  B69  1  0.28384018  0.99944985  0.65924767  1
  B  B70  1  0.71615982  0.99944985  0.34075233  1
  B  B71  1  0.71615982  0.00055015  0.65924767  1
  B  B72  1  0.34075233  0.28384018  0.00055015  1
  B  B73  1  0.65924767  0.28384018  0.99944985  1
  B  B74  1  0.34075233  0.71615982  0.99944985  1
  B  B75  1  0.65924767  0.71615982  0.00055015  1
  B  B76  1  0.49966434  0.15935190  0.21639941  1
  B  B77  1  0.50033566  0.84064810  0.21639941  1
  B  B78  1  0.50033566  0.15935190  0.78360059  1
  B  B79  1  0.49966434  0.84064810  0.78360059  1
  B  B80  1  0.21639941  0.49966434  0.15935190  1
  B  B81  1  0.21639941  0.50033566  0.84064810  1
  B  B82  1  0.78360059  0.50033566  0.15935190  1
  B  B83  1  0.78360059  0.49966434  0.84064810  1
  B  B84  1  0.15935190  0.21639941  0.49966434  1
  B  B85  1  0.84064810  0.21639941  0.50033566  1
  B  B86  1  0.15935190  0.78360059  0.50033566  1
  B  B87  1  0.84064810  0.78360059  0.49966434  1
