# generated using pymatgen
data_HHeLi4
_symmetry_space_group_name_H-M   'P 1'
_cell_length_a   7.03698365
_cell_length_b   7.03698365
_cell_length_c   7.13349160
_cell_angle_alpha   77.57723311
_cell_angle_beta   77.57723311
_cell_angle_gamma   84.21253758
_symmetry_Int_Tables_number   1
_chemical_formula_structural   HHeLi4
_chemical_formula_sum   'H4 He4 Li16'
_cell_volume   336.34514915
_cell_formula_units_Z   4
loop_
 _symmetry_equiv_pos_site_id
 _symmetry_equiv_pos_as_xyz
  1  'x, y, z'
loop_
 _atom_site_type_symbol
 _atom_site_label
 _atom_site_symmetry_multiplicity
 _atom_site_fract_x
 _atom_site_fract_y
 _atom_site_fract_z
 _atom_site_occupancy
  H  H0  1  0.67968862  0.32031138  -0.00000000  1
  H  H1  1  0.32031138  0.67968862  -0.00000000  1
  H  H2  1  0.70100252  0.70100252  0.64232594  1
  H  H3  1  0.29899748  0.29899748  0.35767406  1
  He  He4  1  0.75055239  0.24944761  0.50000000  1
  He  He5  1  0.24944761  0.75055239  0.50000000  1
  He  He6  1  0.77053893  0.77053893  0.09491860  1
  He  He7  1  0.22946107  0.22946107  0.90508140  1
  Li  Li8  1  0.61060677  0.30471700  0.30394325  1
  Li  Li9  1  0.69528300  0.38939323  0.69605675  1
  Li  Li10  1  0.38939323  0.69528300  0.69605675  1
  Li  Li11  1  0.30471700  0.61060677  0.30394325  1
  Li  Li12  1  0.99775358  0.28500813  0.39166685  1
  Li  Li13  1  0.71499187  0.00224642  0.60833315  1
  Li  Li14  1  0.00224642  0.71499187  0.60833315  1
  Li  Li15  1  0.28500813  0.99775358  0.39166685  1
  Li  Li16  1  0.64045506  0.64045506  0.96093827  1
  Li  Li17  1  0.35954494  0.35954494  0.03906173  1
  Li  Li18  1  0.71101138  0.02198661  0.02829118  1
  Li  Li19  1  0.97801339  0.28898862  0.97170882  1
  Li  Li20  1  0.28898862  0.97801339  0.97170882  1
  Li  Li21  1  0.02198661  0.71101138  0.02829118  1
  Li  Li22  1  0.70176859  0.70176859  0.35458605  1
  Li  Li23  1  0.29823141  0.29823141  0.64541395  1
