# generated using pymatgen
data_H4HeLi
_symmetry_space_group_name_H-M   'P 1'
_cell_length_a   5.44537033
_cell_length_b   7.31303150
_cell_length_c   8.97824590
_cell_angle_alpha   90.00000000
_cell_angle_beta   90.00000000
_cell_angle_gamma   90.00000000
_symmetry_Int_Tables_number   1
_chemical_formula_structural   H4HeLi
_chemical_formula_sum   'H16 He4 Li4'
_cell_volume   357.53318754
_cell_formula_units_Z   4
loop_
 _symmetry_equiv_pos_site_id
 _symmetry_equiv_pos_as_xyz
  1  'x, y, z'
loop_
 _atom_site_type_symbol
 _atom_site_label
 _atom_site_symmetry_multiplicity
 _atom_site_fract_x
 _atom_site_fract_y
 _atom_site_fract_z
 _atom_site_occupancy
  H  H0  1  0.75000000  0.39600015  0.92277544  1
  H  H1  1  0.25000000  0.89600015  0.57722456  1
  H  H2  1  0.25000000  0.60399985  0.07722456  1
  H  H3  1  0.75000000  0.10399985  0.42277544  1
  H  H4  1  0.75000000  0.45663098  0.19508848  1
  H  H5  1  0.25000000  0.95663098  0.30491152  1
  H  H6  1  0.25000000  0.54336902  0.80491152  1
  H  H7  1  0.75000000  0.04336902  0.69508848  1
  H  H8  1  0.97447375  0.19845155  0.09331416  1
  H  H9  1  0.02552625  0.69845155  0.40668584  1
  H  H10  1  0.47447375  0.80154845  0.90668584  1
  H  H11  1  0.52552625  0.30154845  0.59331416  1
  H  H12  1  0.02552625  0.80154845  0.90668584  1
  H  H13  1  0.97447375  0.30154845  0.59331416  1
  H  H14  1  0.52552625  0.19845155  0.09331416  1
  H  H15  1  0.47447375  0.69845155  0.40668584  1
  He  He16  1  0.75000000  0.31621819  0.07238705  1
  He  He17  1  0.25000000  0.81621819  0.42761295  1
  He  He18  1  0.25000000  0.68378181  0.92761295  1
  He  He19  1  0.75000000  0.18378181  0.57238705  1
  Li  Li20  1  0.75000000  0.77195431  0.21712393  1
  Li  Li21  1  0.25000000  0.27195431  0.28287607  1
  Li  Li22  1  0.25000000  0.22804569  0.78287607  1
  Li  Li23  1  0.75000000  0.72804569  0.71712393  1
