# generated using pymatgen
data_HHe2
_symmetry_space_group_name_H-M   'P 1'
_cell_length_a   4.07281606
_cell_length_b   4.07279096
_cell_length_c   5.32473106
_cell_angle_alpha   90.00397377
_cell_angle_beta   90.00000000
_cell_angle_gamma   120.00020391
_symmetry_Int_Tables_number   1
_chemical_formula_structural   HHe2
_chemical_formula_sum   'H1 He2'
_cell_volume   76.49170345
_cell_formula_units_Z   1
loop_
 _symmetry_equiv_pos_site_id
 _symmetry_equiv_pos_as_xyz
  1  'x, y, z'
loop_
 _atom_site_type_symbol
 _atom_site_label
 _atom_site_symmetry_multiplicity
 _atom_site_fract_x
 _atom_site_fract_y
 _atom_site_fract_z
 _atom_site_occupancy
  H  H0  1  0.00000000  0.00000000  0.00000000  1
  He  He1  1  0.66668739  0.33337477  0.25635270  1
  He  He2  1  0.33331261  0.66662523  0.74364730  1
