# generated using pymatgen
data_HHeLiBe4B
_symmetry_space_group_name_H-M   'P 1'
_cell_length_a   5.56105755
_cell_length_b   5.56105755
_cell_length_c   7.35612682
_cell_angle_alpha   75.92046862
_cell_angle_beta   75.92046862
_cell_angle_gamma   104.95082324
_symmetry_Int_Tables_number   1
_chemical_formula_structural   HHeLiBe4B
_chemical_formula_sum   'H2 He2 Li2 Be8 B2'
_cell_volume   201.49921689
_cell_formula_units_Z   2
loop_
 _symmetry_equiv_pos_site_id
 _symmetry_equiv_pos_as_xyz
  1  'x, y, z'
loop_
 _atom_site_type_symbol
 _atom_site_label
 _atom_site_symmetry_multiplicity
 _atom_site_fract_x
 _atom_site_fract_y
 _atom_site_fract_z
 _atom_site_occupancy
  H  H0  1  0.08575110  0.91424890  0.25000000  1
  H  H1  1  0.91424890  0.08575110  0.75000000  1
  He  He2  1  0.00000000  0.00000000  0.00000000  1
  He  He3  1  0.00000000  0.00000000  0.50000000  1
  Li  Li4  1  0.33680970  0.66319030  0.25000000  1
  Li  Li5  1  0.66319030  0.33680970  0.75000000  1
  Be  Be6  1  0.67287907  0.11636429  0.14753331  1
  Be  Be7  1  0.88363571  0.32712093  0.35246669  1
  Be  Be8  1  0.32712093  0.88363571  0.85246669  1
  Be  Be9  1  0.11636429  0.67287907  0.64753331  1
  Be  Be10  1  0.74343519  0.58170144  0.10154316  1
  Be  Be11  1  0.41829856  0.25656481  0.39845684  1
  Be  Be12  1  0.25656481  0.41829856  0.89845684  1
  Be  Be13  1  0.58170144  0.74343519  0.60154316  1
  B  B14  1  0.68077832  0.31922168  0.25000000  1
  B  B15  1  0.31922168  0.68077832  0.75000000  1
