# generated using pymatgen
data_HHe4Li2(BeB4)4
_symmetry_space_group_name_H-M   'P 1'
_cell_length_a   8.33061935
_cell_length_b   8.09484744
_cell_length_c   7.71672746
_cell_angle_alpha   81.18920946
_cell_angle_beta   61.06470064
_cell_angle_gamma   80.72551262
_symmetry_Int_Tables_number   1
_chemical_formula_structural   HHe4Li2(BeB4)4
_chemical_formula_sum   'H1 He4 Li2 Be4 B16'
_cell_volume   447.75760699
_cell_formula_units_Z   1
loop_
 _symmetry_equiv_pos_site_id
 _symmetry_equiv_pos_as_xyz
  1  'x, y, z'
loop_
 _atom_site_type_symbol
 _atom_site_label
 _atom_site_symmetry_multiplicity
 _atom_site_fract_x
 _atom_site_fract_y
 _atom_site_fract_z
 _atom_site_occupancy
  H  H0  1  -0.00000000  0.50000000  -0.00000000  1
  He  He1  1  0.49753326  0.32350977  0.76644641  1
  He  He2  1  0.50246674  0.67649023  0.23355359  1
  He  He3  1  0.77219327  0.15496672  0.94398706  1
  He  He4  1  0.22780673  0.84503328  0.05601294  1
  Li  Li5  1  0.25863267  0.17467660  0.47219517  1
  Li  Li6  1  0.74136733  0.82532340  0.52780483  1
  Be  Be7  1  0.18544602  0.71261181  0.62772742  1
  Be  Be8  1  0.81455398  0.28738819  0.37227258  1
  Be  Be9  1  0.99460718  0.80668356  0.76687462  1
  Be  Be10  1  0.00539282  0.19331644  0.23312538  1
  B  B11  1  0.60535882  0.21976157  0.56730455  1
  B  B12  1  0.39464118  0.78023843  0.43269545  1
  B  B13  1  0.72754176  0.66295725  0.15180802  1
  B  B14  1  0.27245824  0.33704275  0.84819198  1
  B  B15  1  0.56837330  0.50775559  0.71219650  1
  B  B16  1  0.43162670  0.49224441  0.28780350  1
  B  B17  1  0.55126993  0.21455475  0.95442955  1
  B  B18  1  0.44873007  0.78544525  0.04557045  1
  B  B19  1  0.73323749  0.07494892  0.16409008  1
  B  B20  1  0.26676251  0.92505108  0.83590992  1
  B  B21  1  0.88835203  0.01530029  0.78102692  1
  B  B22  1  0.11164797  0.98469971  0.21897308  1
  B  B23  1  0.89043583  0.31994514  0.87561110  1
  B  B24  1  0.10956417  0.68005486  0.12438890  1
  B  B25  1  0.05578184  0.69297465  0.72576232  1
  B  B26  1  0.94421816  0.30702535  0.27423768  1
