# generated using pymatgen
data_H11HeLiBe2
_symmetry_space_group_name_H-M   'P 1'
_cell_length_a   5.80515127
_cell_length_b   5.80515127
_cell_length_c   7.93439212
_cell_angle_alpha   69.20939269
_cell_angle_beta   69.20939269
_cell_angle_gamma   72.90157041
_symmetry_Int_Tables_number   1
_chemical_formula_structural   H11HeLiBe2
_chemical_formula_sum   'H11 He1 Li1 Be2'
_cell_volume   229.33948281
_cell_formula_units_Z   1
loop_
 _symmetry_equiv_pos_site_id
 _symmetry_equiv_pos_as_xyz
  1  'x, y, z'
loop_
 _atom_site_type_symbol
 _atom_site_label
 _atom_site_symmetry_multiplicity
 _atom_site_fract_x
 _atom_site_fract_y
 _atom_site_fract_z
 _atom_site_occupancy
  H  H0  1  0.50000000  0.50000000  0.50000000  1
  H  H1  1  0.33038038  0.66961962  0.00000000  1
  H  H2  1  0.66961962  0.33038038  0.00000000  1
  H  H3  1  0.25158273  0.25158273  0.35177261  1
  H  H4  1  0.74841727  0.74841727  0.64822739  1
  H  H5  1  0.26652119  0.26652119  0.89107566  1
  H  H6  1  0.73347881  0.73347881  0.10892434  1
  H  H7  1  0.22040037  0.80452797  0.69189449  1
  H  H8  1  0.19547203  0.77959963  0.30810551  1
  H  H9  1  0.77959963  0.19547203  0.30810551  1
  H  H10  1  0.80452797  0.22040037  0.69189449  1
  He  He11  1  -0.00000000  -0.00000000  -0.00000000  1
  Li  Li12  1  -0.00000000  -0.00000000  0.50000000  1
  Be  Be13  1  0.50357262  0.50357262  0.76565682  1
  Be  Be14  1  0.49642738  0.49642738  0.23434318  1
