# generated using pymatgen
data_HHe
_symmetry_space_group_name_H-M   'P 1'
_cell_length_a   9.68144762
_cell_length_b   4.38851829
_cell_length_c   4.39066844
_cell_angle_alpha   59.99953127
_cell_angle_beta   89.99661361
_cell_angle_gamma   89.99318092
_symmetry_Int_Tables_number   1
_chemical_formula_structural   HHe
_chemical_formula_sum   'H3 He3'
_cell_volume   161.55389471
_cell_formula_units_Z   3
loop_
 _symmetry_equiv_pos_site_id
 _symmetry_equiv_pos_as_xyz
  1  'x, y, z'
loop_
 _atom_site_type_symbol
 _atom_site_label
 _atom_site_symmetry_multiplicity
 _atom_site_fract_x
 _atom_site_fract_y
 _atom_site_fract_z
 _atom_site_occupancy
  H  H0  1  0.33333480  0.74710660  0.99996895  1
  H  H1  1  0.66660033  0.00002062  0.25287263  1
  H  H2  1  0.99999101  0.25275696  0.74724697  1
  He  He3  1  0.83327200  0.46524274  0.99997571  1
  He  He4  1  0.16667371  0.99999357  0.53481717  1
  He  He5  1  0.49995481  0.53478392  0.46519252  1
