# generated using pymatgen
data_HHeLi
_symmetry_space_group_name_H-M   'P 1'
_cell_length_a   4.33355334
_cell_length_b   7.04577358
_cell_length_c   7.48722658
_cell_angle_alpha   90.00000000
_cell_angle_beta   90.00000000
_cell_angle_gamma   90.00000000
_symmetry_Int_Tables_number   1
_chemical_formula_structural   HHeLi
_chemical_formula_sum   'H4 He4 Li4'
_cell_volume   228.60925310
_cell_formula_units_Z   4
loop_
 _symmetry_equiv_pos_site_id
 _symmetry_equiv_pos_as_xyz
  1  'x, y, z'
loop_
 _atom_site_type_symbol
 _atom_site_label
 _atom_site_symmetry_multiplicity
 _atom_site_fract_x
 _atom_site_fract_y
 _atom_site_fract_z
 _atom_site_occupancy
  H  H0  1  0.25000000  0.81361008  0.42505290  1
  H  H1  1  0.75000000  0.68638992  0.92505290  1
  H  H2  1  0.75000000  0.18638992  0.57494710  1
  H  H3  1  0.25000000  0.31361008  0.07494710  1
  He  He4  1  0.25000000  0.22829842  0.40982042  1
  He  He5  1  0.75000000  0.27170158  0.90982042  1
  He  He6  1  0.75000000  0.77170158  0.59017958  1
  He  He7  1  0.25000000  0.72829842  0.09017958  1
  Li  Li8  1  0.25000000  0.00986334  0.77572064  1
  Li  Li9  1  0.75000000  0.49013666  0.27572064  1
  Li  Li10  1  0.75000000  0.99013666  0.22427936  1
  Li  Li11  1  0.25000000  0.50986334  0.72427936  1
