# generated using pymatgen
data_HHe3(LiBe2)6
_symmetry_space_group_name_H-M   'P 1'
_cell_length_a   7.57155420
_cell_length_b   7.57155420
_cell_length_c   7.57155420
_cell_angle_alpha   60.00000000
_cell_angle_beta   60.00000000
_cell_angle_gamma   60.00000000
_symmetry_Int_Tables_number   1
_chemical_formula_structural   HHe3(LiBe2)6
_chemical_formula_sum   'H1 He3 Li6 Be12'
_cell_volume   306.93054346
_cell_formula_units_Z   1
loop_
 _symmetry_equiv_pos_site_id
 _symmetry_equiv_pos_as_xyz
  1  'x, y, z'
loop_
 _atom_site_type_symbol
 _atom_site_label
 _atom_site_symmetry_multiplicity
 _atom_site_fract_x
 _atom_site_fract_y
 _atom_site_fract_z
 _atom_site_occupancy
  H  H0  1  0.00000000  -0.00000000  0.00000000  1
  He  He1  1  0.25000000  0.25000000  0.25000000  1
  He  He2  1  0.75000000  0.75000000  0.75000000  1
  He  He3  1  0.50000000  0.50000000  0.50000000  1
  Li  Li4  1  0.81544597  0.81544597  0.18455403  1
  Li  Li5  1  0.18455403  0.18455403  0.81544597  1
  Li  Li6  1  0.81544597  0.18455403  0.18455403  1
  Li  Li7  1  0.18455403  0.81544597  0.81544597  1
  Li  Li8  1  0.81544597  0.18455403  0.81544597  1
  Li  Li9  1  0.18455403  0.81544597  0.18455403  1
  Be  Be10  1  0.65576287  0.34423713  0.14224081  1
  Be  Be11  1  0.14224081  0.85775919  0.65576287  1
  Be  Be12  1  0.85775919  0.14224081  0.34423713  1
  Be  Be13  1  0.34423713  0.65576287  0.85775919  1
  Be  Be14  1  0.65576287  0.14224081  0.85775919  1
  Be  Be15  1  0.14224081  0.65576287  0.34423713  1
  Be  Be16  1  0.85775919  0.34423713  0.65576287  1
  Be  Be17  1  0.34423713  0.85775919  0.14224081  1
  Be  Be18  1  0.65576287  0.85775919  0.34423713  1
  Be  Be19  1  0.14224081  0.34423713  0.85775919  1
  Be  Be20  1  0.85775919  0.65576287  0.14224081  1
  Be  Be21  1  0.34423713  0.14224081  0.65576287  1
