# generated using pymatgen
data_H2He3
_symmetry_space_group_name_H-M   'P 1'
_cell_length_a   8.16926435
_cell_length_b   8.16926435
_cell_length_c   8.16926435
_cell_angle_alpha   109.47122063
_cell_angle_beta   109.47122063
_cell_angle_gamma   109.47122063
_symmetry_Int_Tables_number   1
_chemical_formula_structural   H2He3
_chemical_formula_sum   'H16 He24'
_cell_volume   419.68839309
_cell_formula_units_Z   8
loop_
 _symmetry_equiv_pos_site_id
 _symmetry_equiv_pos_as_xyz
  1  'x, y, z'
loop_
 _atom_site_type_symbol
 _atom_site_label
 _atom_site_symmetry_multiplicity
 _atom_site_fract_x
 _atom_site_fract_y
 _atom_site_fract_z
 _atom_site_occupancy
  H  H0  1  0.00000000  0.00000000  -0.00000000  1
  H  H1  1  0.50000000  0.50000000  0.00000000  1
  H  H2  1  -0.00000000  0.50000000  0.50000000  1
  H  H3  1  0.50000000  0.00000000  0.50000000  1
  H  H4  1  0.25000000  0.71160284  0.96160284  1
  H  H5  1  0.75000000  0.78839716  0.53839716  1
  H  H6  1  0.28839716  0.03839716  0.75000000  1
  H  H7  1  0.21160284  0.46160284  0.25000000  1
  H  H8  1  0.53839716  0.25000000  0.28839716  1
  H  H9  1  0.96160284  0.75000000  0.21160284  1
  H  H10  1  0.75000000  0.28839716  0.03839716  1
  H  H11  1  0.25000000  0.21160284  0.46160284  1
  H  H12  1  0.71160284  0.96160284  0.25000000  1
  H  H13  1  0.78839716  0.53839716  0.75000000  1
  H  H14  1  0.46160284  0.75000000  0.71160284  1
  H  H15  1  0.03839716  0.25000000  0.78839716  1
  He  He16  1  0.04283606  0.99546816  0.77341179  1
  He  He17  1  0.27794363  0.50453184  0.04736790  1
  He  He18  1  0.22205637  0.76942427  0.72658821  1
  He  He19  1  0.45716394  0.73057573  0.45263210  1
  He  He20  1  0.26942427  0.22658821  0.22205637  1
  He  He21  1  0.23057573  0.95263210  0.45716394  1
  He  He22  1  0.49546816  0.27341179  0.04283606  1
  He  He23  1  0.00453184  0.54736790  0.27794363  1
  He  He24  1  0.04736790  0.77794363  0.00453184  1
  He  He25  1  0.77341179  0.54283606  0.49546816  1
  He  He26  1  0.45263210  0.95716394  0.23057573  1
  He  He27  1  0.72658821  0.72205637  0.26942427  1
  He  He28  1  0.95716394  0.00453184  0.22658821  1
  He  He29  1  0.72205637  0.49546816  0.95263210  1
  He  He30  1  0.77794363  0.23057573  0.27341179  1
  He  He31  1  0.54283606  0.26942427  0.54736790  1
  He  He32  1  0.73057573  0.77341179  0.77794363  1
  He  He33  1  0.76942427  0.04736790  0.54283606  1
  He  He34  1  0.50453184  0.72658821  0.95716394  1
  He  He35  1  0.99546816  0.45263210  0.72205637  1
  He  He36  1  0.95263210  0.22205637  0.99546816  1
  He  He37  1  0.22658821  0.45716394  0.50453184  1
  He  He38  1  0.54736790  0.04283606  0.76942427  1
  He  He39  1  0.27341179  0.27794363  0.73057573  1
