# generated using pymatgen
data_HHeLi4
_symmetry_space_group_name_H-M   'P 1'
_cell_length_a   6.77802905
_cell_length_b   6.77802905
_cell_length_c   6.77802905
_cell_angle_alpha   134.30293364
_cell_angle_beta   134.30293364
_cell_angle_gamma   66.61523415
_symmetry_Int_Tables_number   1
_chemical_formula_structural   HHeLi4
_chemical_formula_sum   'H2 He2 Li8'
_cell_volume   156.95136150
_cell_formula_units_Z   2
loop_
 _symmetry_equiv_pos_site_id
 _symmetry_equiv_pos_as_xyz
  1  'x, y, z'
loop_
 _atom_site_type_symbol
 _atom_site_label
 _atom_site_symmetry_multiplicity
 _atom_site_fract_x
 _atom_site_fract_y
 _atom_site_fract_z
 _atom_site_occupancy
  H  H0  1  0.50000000  0.50000000  -0.00000000  1
  H  H1  1  0.75000000  0.25000000  0.50000000  1
  He  He2  1  -0.00000000  0.00000000  -0.00000000  1
  He  He3  1  0.25000000  0.75000000  0.50000000  1
  Li  Li4  1  0.84248011  0.23917403  0.90691678  1
  Li  Li5  1  0.33225725  0.93556333  0.09308322  1
  Li  Li6  1  0.48917403  0.08225725  0.89669392  1
  Li  Li7  1  0.18556333  0.59248011  0.10330608  1
  Li  Li8  1  0.40751989  0.51082597  0.59308322  1
  Li  Li9  1  0.91774275  0.81443667  0.40691678  1
  Li  Li10  1  0.76082597  0.66774275  0.60330608  1
  Li  Li11  1  0.06443667  0.15751989  0.39669392  1
