# generated using pymatgen
data_HHe3Li2
_symmetry_space_group_name_H-M   'P 1'
_cell_length_a   9.19978988
_cell_length_b   12.58298732
_cell_length_c   12.87484356
_cell_angle_alpha   79.15901563
_cell_angle_beta   90.00000000
_cell_angle_gamma   90.00000000
_symmetry_Int_Tables_number   1
_chemical_formula_structural   HHe3Li2
_chemical_formula_sum   'H8 He24 Li16'
_cell_volume   1463.80342581
_cell_formula_units_Z   8
loop_
 _symmetry_equiv_pos_site_id
 _symmetry_equiv_pos_as_xyz
  1  'x, y, z'
loop_
 _atom_site_type_symbol
 _atom_site_label
 _atom_site_symmetry_multiplicity
 _atom_site_fract_x
 _atom_site_fract_y
 _atom_site_fract_z
 _atom_site_occupancy
  H  H0  1  0.07859891  0.56620325  0.01611391  1
  H  H1  1  0.57859891  0.43379675  0.48388609  1
  H  H2  1  0.92140109  0.43379675  0.98388609  1
  H  H3  1  0.42140109  0.56620325  0.51611391  1
  H  H4  1  0.92623034  0.99608179  0.42877892  1
  H  H5  1  0.42623034  0.00391821  0.07122108  1
  H  H6  1  0.07376966  0.00391821  0.57122108  1
  H  H7  1  0.57376966  0.99608179  0.92877892  1
  He  He8  1  0.16636663  0.84039186  0.62238496  1
  He  He9  1  0.66636663  0.15960814  0.87761504  1
  He  He10  1  0.83363337  0.15960814  0.37761504  1
  He  He11  1  0.33363337  0.84039186  0.12238496  1
  He  He12  1  0.87764415  0.33401851  0.14324212  1
  He  He13  1  0.37764415  0.66598149  0.35675788  1
  He  He14  1  0.12235585  0.66598149  0.85675788  1
  He  He15  1  0.62235585  0.33401851  0.64324212  1
  He  He16  1  0.23764897  0.12966373  0.51049080  1
  He  He17  1  0.73764897  0.87033627  0.98950920  1
  He  He18  1  0.76235103  0.87033627  0.48950920  1
  He  He19  1  0.26235103  0.12966373  0.01049080  1
  He  He20  1  0.27772837  0.48017931  0.08332025  1
  He  He21  1  0.77772837  0.51982069  0.41667975  1
  He  He22  1  0.72227163  0.51982069  0.91667975  1
  He  He23  1  0.22227163  0.48017931  0.58332025  1
  He  He24  1  0.97507116  0.65745283  0.12551758  1
  He  He25  1  0.47507116  0.34254717  0.37448242  1
  He  He26  1  0.02492884  0.34254717  0.87448242  1
  He  He27  1  0.52492884  0.65745283  0.62551758  1
  He  He28  1  0.06636322  0.94773615  0.30514704  1
  He  He29  1  0.56636322  0.05226385  0.19485296  1
  He  He30  1  0.93363678  0.05226385  0.69485296  1
  He  He31  1  0.43363678  0.94773615  0.80514704  1
  Li  Li32  1  0.03764394  0.70649174  0.45293927  1
  Li  Li33  1  0.53764394  0.29350826  0.04706073  1
  Li  Li34  1  0.96235606  0.29350826  0.54706073  1
  Li  Li35  1  0.46235606  0.70649174  0.95293927  1
  Li  Li36  1  0.10972596  0.90129710  0.93138514  1
  Li  Li37  1  0.60972596  0.09870290  0.56861486  1
  Li  Li38  1  0.89027404  0.09870290  0.06861486  1
  Li  Li39  1  0.39027404  0.90129710  0.43138514  1
  Li  Li40  1  0.17934355  0.19773621  0.24736982  1
  Li  Li41  1  0.67934355  0.80226379  0.25263018  1
  Li  Li42  1  0.82065645  0.80226379  0.75263018  1
  Li  Li43  1  0.32065645  0.19773621  0.74736982  1
  Li  Li44  1  0.34415317  0.47881561  0.81045638  1
  Li  Li45  1  0.84415317  0.52118439  0.68954362  1
  Li  Li46  1  0.65584683  0.52118439  0.18954362  1
  Li  Li47  1  0.15584683  0.47881561  0.31045638  1
