# generated using pymatgen
data_HHe3Li
_symmetry_space_group_name_H-M   'P 1'
_cell_length_a   6.12211612
_cell_length_b   6.12211612
_cell_length_c   6.12211612
_cell_angle_alpha   135.71322625
_cell_angle_beta   135.71322625
_cell_angle_gamma   64.42400485
_symmetry_Int_Tables_number   1
_chemical_formula_structural   HHe3Li
_chemical_formula_sum   'H1 He3 Li1'
_cell_volume   110.32870854
_cell_formula_units_Z   1
loop_
 _symmetry_equiv_pos_site_id
 _symmetry_equiv_pos_as_xyz
  1  'x, y, z'
loop_
 _atom_site_type_symbol
 _atom_site_label
 _atom_site_symmetry_multiplicity
 _atom_site_fract_x
 _atom_site_fract_y
 _atom_site_fract_z
 _atom_site_occupancy
  H  H0  1  0.00030756  0.00030756  -0.00000000  1
  He  He1  1  0.40001009  0.40001009  -0.00000000  1
  He  He2  1  0.75366806  0.25366806  0.50000000  1
  He  He3  1  0.25366806  0.75366806  0.50000000  1
  Li  Li4  1  0.64804622  0.64804622  0.00000000  1
