# generated using pymatgen
data_H12He
_symmetry_space_group_name_H-M   'P 1'
_cell_length_a   7.84527316
_cell_length_b   7.84527316
_cell_length_c   7.84527316
_cell_angle_alpha   98.21316298
_cell_angle_beta   98.21316298
_cell_angle_gamma   135.58482638
_symmetry_Int_Tables_number   1
_chemical_formula_structural   H12He
_chemical_formula_sum   'H12 He1'
_cell_volume   312.86541579
_cell_formula_units_Z   1
loop_
 _symmetry_equiv_pos_site_id
 _symmetry_equiv_pos_as_xyz
  1  'x, y, z'
loop_
 _atom_site_type_symbol
 _atom_site_label
 _atom_site_symmetry_multiplicity
 _atom_site_fract_x
 _atom_site_fract_y
 _atom_site_fract_z
 _atom_site_occupancy
  H  H0  1  -0.00000000  0.50000000  0.00000000  1
  H  H1  1  0.50000000  0.00000000  0.00000000  1
  H  H2  1  0.50000000  0.50000000  0.50000000  1
  H  H3  1  -0.00000000  -0.00000000  0.50000000  1
  H  H4  1  0.64955982  0.00000000  0.64955982  1
  H  H5  1  0.35044018  0.00000000  0.35044018  1
  H  H6  1  0.00000000  0.35044018  0.35044018  1
  H  H7  1  0.00000000  0.64955982  0.64955982  1
  H  H8  1  0.71213830  0.50000000  0.21213830  1
  H  H9  1  0.28786170  0.50000000  0.78786170  1
  H  H10  1  0.50000000  0.28786170  0.78786170  1
  H  H11  1  0.50000000  0.71213830  0.21213830  1
  He  He12  1  -0.00000000  -0.00000000  -0.00000000  1
