# generated using pymatgen
data_H3He7
_symmetry_space_group_name_H-M   'P 1'
_cell_length_a   10.32406124
_cell_length_b   10.32414215
_cell_length_c   6.47496481
_cell_angle_alpha   90.00000000
_cell_angle_beta   90.00000000
_cell_angle_gamma   120.00025925
_symmetry_Int_Tables_number   1
_chemical_formula_structural   H3He7
_chemical_formula_sum   'H6 He14'
_cell_volume   597.68376208
_cell_formula_units_Z   2
loop_
 _symmetry_equiv_pos_site_id
 _symmetry_equiv_pos_as_xyz
  1  'x, y, z'
loop_
 _atom_site_type_symbol
 _atom_site_label
 _atom_site_symmetry_multiplicity
 _atom_site_fract_x
 _atom_site_fract_y
 _atom_site_fract_z
 _atom_site_occupancy
  H  H0  1  0.37337850  0.18668925  0.30507822  1
  H  H1  1  0.81330591  0.18667733  0.30504234  1
  H  H2  1  0.81330591  0.62662857  0.30504234  1
  H  H3  1  0.62662150  0.81331075  0.80507822  1
  H  H4  1  0.18669409  0.81332267  0.80504234  1
  H  H5  1  0.18669409  0.37337143  0.80504234  1
  He  He6  1  0.33333429  0.66666714  0.06142195  1
  He  He7  1  0.66666571  0.33333286  0.56142195  1
  He  He8  1  0.74581206  0.87290603  0.24106729  1
  He  He9  1  0.12709598  0.87290316  0.24106259  1
  He  He10  1  0.12709598  0.25419282  0.24106259  1
  He  He11  1  0.25418794  0.12709397  0.74106729  1
  He  He12  1  0.87290402  0.12709684  0.74106259  1
  He  He13  1  0.87290402  0.74580718  0.74106259  1
  He  He14  1  0.91249438  0.45624719  0.04340342  1
  He  He15  1  0.54374900  0.45624514  0.04340963  1
  He  He16  1  0.54374900  0.08750386  0.04340963  1
  He  He17  1  0.08750562  0.54375281  0.54340342  1
  He  He18  1  0.45625100  0.54375486  0.54340963  1
  He  He19  1  0.45625100  0.91249614  0.54340963  1
