# generated using pymatgen
data_H2He4Li(BeB2)2
_symmetry_space_group_name_H-M   'P 1'
_cell_length_a   14.64639357
_cell_length_b   14.39855373
_cell_length_c   9.75924272
_cell_angle_alpha   71.74282863
_cell_angle_beta   69.00156169
_cell_angle_gamma   39.25560968
_symmetry_Int_Tables_number   1
_chemical_formula_structural   H2He4Li(BeB2)2
_chemical_formula_sum   'H8 He16 Li4 Be8 B16'
_cell_volume   1213.60197039
_cell_formula_units_Z   4
loop_
 _symmetry_equiv_pos_site_id
 _symmetry_equiv_pos_as_xyz
  1  'x, y, z'
loop_
 _atom_site_type_symbol
 _atom_site_label
 _atom_site_symmetry_multiplicity
 _atom_site_fract_x
 _atom_site_fract_y
 _atom_site_fract_z
 _atom_site_occupancy
  H  H0  1  0.59628558  0.26868075  0.03109813  1
  H  H1  1  0.10393554  0.03109813  0.26868075  1
  H  H2  1  0.71890187  0.64606446  0.15371442  1
  H  H3  1  0.48131925  0.15371442  0.64606446  1
  H  H4  1  0.85214623  0.95036253  0.33641164  1
  H  H5  1  0.86107960  0.33641164  0.95036253  1
  H  H6  1  0.41358836  0.88892040  0.89785377  1
  H  H7  1  0.79963747  0.89785377  0.88892040  1
  He  He8  1  0.14178334  0.73456327  0.98106905  1
  He  He9  1  0.14258434  0.98106905  0.73456327  1
  He  He10  1  0.76893095  0.60741566  0.60821666  1
  He  He11  1  0.01543673  0.60821666  0.60741566  1
  He  He12  1  0.12177403  0.82884646  0.70066678  1
  He  He13  1  0.34871273  0.70066678  0.82884646  1
  He  He14  1  0.04933322  0.40128727  0.62822597  1
  He  He15  1  0.92115354  0.62822597  0.40128727  1
  He  He16  1  0.40973733  0.53824306  0.35613801  1
  He  He17  1  0.69588159  0.35613801  0.53824306  1
  He  He18  1  0.39386199  0.05411841  0.34026267  1
  He  He19  1  0.21175694  0.34026267  0.05411841  1
  He  He20  1  0.44100552  0.45662944  0.63190284  1
  He  He21  1  0.47046220  0.63190284  0.45662944  1
  He  He22  1  0.11809716  0.27953780  0.30899448  1
  He  He23  1  0.29337056  0.30899448  0.27953780  1
  Li  Li24  1  0.15381613  0.84618387  0.84618387  1
  Li  Li25  1  0.90381613  0.59618387  0.59618387  1
  Li  Li26  1  0.53838851  0.46161149  0.46161149  1
  Li  Li27  1  0.28838851  0.21161149  0.21161149  1
  Be  Be28  1  0.87358797  0.05427350  0.93725154  1
  Be  Be29  1  0.13488700  0.93725154  0.05427350  1
  Be  Be30  1  0.81274846  0.61511300  0.87641203  1
  Be  Be31  1  0.69572650  0.87641203  0.61511300  1
  Be  Be32  1  0.67045265  0.20891070  0.41735281  1
  Be  Be33  1  0.70328384  0.41735281  0.20891070  1
  Be  Be34  1  0.33264719  0.04671616  0.07954735  1
  Be  Be35  1  0.54108930  0.07954735  0.04671616  1
  B  B36  1  0.14262443  0.65549355  0.06114218  1
  B  B37  1  0.14073983  0.06114218  0.65549355  1
  B  B38  1  0.68885782  0.60926017  0.60737557  1
  B  B39  1  0.09450645  0.60737557  0.60926017  1
  B  B40  1  0.10193442  0.82069789  0.60248674  1
  B  B41  1  0.47488095  0.60248674  0.82069789  1
  B  B42  1  0.14751326  0.27511905  0.64806558  1
  B  B43  1  0.92930211  0.64806558  0.27511905  1
  B  B44  1  0.32150798  0.59413756  0.29326522  1
  B  B45  1  0.79108923  0.29326522  0.59413756  1
  B  B46  1  0.45673478  0.95891077  0.42849202  1
  B  B47  1  0.15586244  0.42849202  0.95891077  1
  B  B48  1  0.37710677  0.45508467  0.74269630  1
  B  B49  1  0.42511225  0.74269630  0.45508467  1
  B  B50  1  0.00730370  0.32488775  0.37289323  1
  B  B51  1  0.29491533  0.37289323  0.32488775  1
