# generated using pymatgen
data_HHeLi2Be7
_symmetry_space_group_name_H-M   'P 1'
_cell_length_a   6.74681558
_cell_length_b   6.74681558
_cell_length_c   6.58478632
_cell_angle_alpha   84.39016908
_cell_angle_beta   84.39016908
_cell_angle_gamma   97.83945124
_symmetry_Int_Tables_number   1
_chemical_formula_structural   HHeLi2Be7
_chemical_formula_sum   'H1 He1 Li2 Be7'
_cell_volume   293.63105367
_cell_formula_units_Z   1
loop_
 _symmetry_equiv_pos_site_id
 _symmetry_equiv_pos_as_xyz
  1  'x, y, z'
loop_
 _atom_site_type_symbol
 _atom_site_label
 _atom_site_symmetry_multiplicity
 _atom_site_fract_x
 _atom_site_fract_y
 _atom_site_fract_z
 _atom_site_occupancy
  H  H0  1  0.50024918  0.49975082  -0.00000000  1
  He  He1  1  0.91746110  0.08253890  0.50000000  1
  Li  Li2  1  0.36222214  0.03915382  0.91535933  1
  Li  Li3  1  0.96084618  0.63777786  0.08464067  1
  Be  Be4  1  0.36874389  0.28845880  0.71168063  1
  Be  Be5  1  0.71154120  0.63125611  0.28831937  1
  Be  Be6  1  0.48822503  0.11723038  0.16763085  1
  Be  Be7  1  0.88276962  0.51177497  0.83236915  1
  Be  Be8  1  0.47530929  0.82662910  0.75772839  1
  Be  Be9  1  0.17337090  0.52469071  0.24227161  1
  Be  Be10  1  0.04076148  0.95923852  -0.00000000  1
