# generated using pymatgen
data_HHe3Li2
_symmetry_space_group_name_H-M   'P 1'
_cell_length_a   6.84813789
_cell_length_b   6.84813789
_cell_length_c   6.84813789
_cell_angle_alpha   132.35371145
_cell_angle_beta   128.68149921
_cell_angle_gamma   72.62068920
_symmetry_Int_Tables_number   1
_chemical_formula_structural   HHe3Li2
_chemical_formula_sum   'H2 He6 Li4'
_cell_volume   181.05568293
_cell_formula_units_Z   2
loop_
 _symmetry_equiv_pos_site_id
 _symmetry_equiv_pos_as_xyz
  1  'x, y, z'
loop_
 _atom_site_type_symbol
 _atom_site_label
 _atom_site_symmetry_multiplicity
 _atom_site_fract_x
 _atom_site_fract_y
 _atom_site_fract_z
 _atom_site_occupancy
  H  H0  1  0.00000000  -0.00000000  -0.00000000  1
  H  H1  1  0.50000000  -0.00000000  0.50000000  1
  He  He2  1  0.01011378  0.76011378  0.25000000  1
  He  He3  1  0.48988622  0.23988622  0.25000000  1
  He  He4  1  0.98988622  0.23988622  0.75000000  1
  He  He5  1  0.51011378  0.76011378  0.75000000  1
  He  He6  1  0.25000000  0.50000000  0.75000000  1
  He  He7  1  0.75000000  0.50000000  0.25000000  1
  Li  Li8  1  0.86386524  0.13996450  0.27609927  1
  Li  Li9  1  0.13613476  0.86003550  0.72390073  1
  Li  Li10  1  0.36386524  0.58776597  0.22390073  1
  Li  Li11  1  0.63613476  0.41223403  0.77609927  1
