# generated using pymatgen
data_H3He2(Li7Be2)2
_symmetry_space_group_name_H-M   'P 1'
_cell_length_a   5.73343419
_cell_length_b   7.15636115
_cell_length_c   7.97180922
_cell_angle_alpha   77.11189045
_cell_angle_beta   82.46750128
_cell_angle_gamma   68.23642985
_symmetry_Int_Tables_number   1
_chemical_formula_structural   H3He2(Li7Be2)2
_chemical_formula_sum   'H3 He2 Li14 Be4'
_cell_volume   295.69723530
_cell_formula_units_Z   1
loop_
 _symmetry_equiv_pos_site_id
 _symmetry_equiv_pos_as_xyz
  1  'x, y, z'
loop_
 _atom_site_type_symbol
 _atom_site_label
 _atom_site_symmetry_multiplicity
 _atom_site_fract_x
 _atom_site_fract_y
 _atom_site_fract_z
 _atom_site_occupancy
  H  H0  1  0.00000000  0.00000000  -0.00000000  1
  H  H1  1  0.81134033  0.46625047  0.69347654  1
  H  H2  1  0.18865967  0.53374953  0.30652346  1
  He  He3  1  0.40794908  0.99197592  0.31633999  1
  He  He4  1  0.59205092  0.00802408  0.68366001  1
  Li  Li5  1  0.31658662  0.30190242  0.11649588  1
  Li  Li6  1  0.68341338  0.69809758  0.88350412  1
  Li  Li7  1  0.62651174  0.23919830  0.85496423  1
  Li  Li8  1  0.37348826  0.76080170  0.14503577  1
  Li  Li9  1  0.18596223  0.23694892  0.84572540  1
  Li  Li10  1  0.81403777  0.76305108  0.15427460  1
  Li  Li11  1  0.25467071  0.56890642  0.85004854  1
  Li  Li12  1  0.74532929  0.43109358  0.14995146  1
  Li  Li13  1  0.03820121  0.93148335  0.72530758  1
  Li  Li14  1  0.96179879  0.06851665  0.27469242  1
  Li  Li15  1  0.45161461  0.73388761  0.57640436  1
  Li  Li16  1  0.54838539  0.26611239  0.42359564  1
  Li  Li17  1  0.05764267  0.65513582  0.56133834  1
  Li  Li18  1  0.94235733  0.34486418  0.43866166  1
  Be  Be19  1  0.34754457  0.32640281  0.92276807  1
  Be  Be20  1  0.65245543  0.67359719  0.07723193  1
  Be  Be21  1  0.19943990  0.73156547  0.66754314  1
  Be  Be22  1  0.80056010  0.26843453  0.33245686  1
