# generated using pymatgen
data_H2He3Li4
_symmetry_space_group_name_H-M   'P 1'
_cell_length_a   4.30093357
_cell_length_b   11.16739049
_cell_length_c   14.92289080
_cell_angle_alpha   90.00000000
_cell_angle_beta   90.00000000
_cell_angle_gamma   89.99950883
_symmetry_Int_Tables_number   1
_chemical_formula_structural   H2He3Li4
_chemical_formula_sum   'H8 He12 Li16'
_cell_volume   716.74949921
_cell_formula_units_Z   4
loop_
 _symmetry_equiv_pos_site_id
 _symmetry_equiv_pos_as_xyz
  1  'x, y, z'
loop_
 _atom_site_type_symbol
 _atom_site_label
 _atom_site_symmetry_multiplicity
 _atom_site_fract_x
 _atom_site_fract_y
 _atom_site_fract_z
 _atom_site_occupancy
  H  H0  1  0.26633572  0.14072989  0.23822869  1
  H  H1  1  0.23366428  0.85927011  0.73822869  1
  H  H2  1  0.73364569  0.64073052  0.26177502  1
  H  H3  1  0.76635431  0.35926948  0.76177502  1
  H  H4  1  0.40700511  0.00071825  0.97922237  1
  H  H5  1  0.09299489  0.99928175  0.47922237  1
  H  H6  1  0.59314226  0.50093651  0.52077776  1
  H  H7  1  0.90685774  0.49906349  0.02077776  1
  He  He8  1  0.90100105  0.31220617  0.38596814  1
  He  He9  1  0.59899895  0.68779383  0.88596814  1
  He  He10  1  0.09893352  0.81213422  0.11403726  1
  He  He11  1  0.40106648  0.18786578  0.61403726  1
  He  He12  1  0.77364534  0.15489683  0.09316249  1
  He  He13  1  0.72635466  0.84510317  0.59316249  1
  He  He14  1  0.22623702  0.65503315  0.40683596  1
  He  He15  1  0.27376298  0.34496685  0.90683596  1
  He  He16  1  0.64864711  0.96204441  0.32961290  1
  He  He17  1  0.85135289  0.03795559  0.82961290  1
  He  He18  1  0.35139723  0.46201033  0.17037824  1
  He  He19  1  0.14860277  0.53798967  0.67037824  1
  Li  Li20  1  0.59332593  0.74560136  0.24242536  1
  Li  Li21  1  0.90667407  0.25439864  0.74242536  1
  Li  Li22  1  0.40665455  0.24559389  0.25759137  1
  Li  Li23  1  0.09334545  0.75440611  0.75759137  1
  Li  Li24  1  0.14863257  0.03255627  0.21605852  1
  Li  Li25  1  0.35136743  0.96744373  0.71605852  1
  Li  Li26  1  0.85142305  0.53256718  0.28393420  1
  Li  Li27  1  0.64857695  0.46743282  0.78393420  1
  Li  Li28  1  0.93178474  0.10012712  0.49564108  1
  Li  Li29  1  0.56821526  0.89987288  0.99564108  1
  Li  Li30  1  0.06818246  0.59992816  0.00437382  1
  Li  Li31  1  0.43181754  0.40007184  0.50437382  1
  Li  Li32  1  0.78651524  0.38851274  0.03656923  1
  Li  Li33  1  0.71348476  0.61148726  0.53656923  1
  Li  Li34  1  0.21346955  0.88872071  0.46340759  1
  Li  Li35  1  0.28653045  0.11127929  0.96340759  1
