# generated using pymatgen
data_H3He
_symmetry_space_group_name_H-M   'P 1'
_cell_length_a   4.32168497
_cell_length_b   6.20787404
_cell_length_c   11.62115187
_cell_angle_alpha   67.97244986
_cell_angle_beta   90.00000000
_cell_angle_gamma   90.00000000
_symmetry_Int_Tables_number   1
_chemical_formula_structural   H3He
_chemical_formula_sum   'H6 He2'
_cell_volume   289.01914325
_cell_formula_units_Z   2
loop_
 _symmetry_equiv_pos_site_id
 _symmetry_equiv_pos_as_xyz
  1  'x, y, z'
loop_
 _atom_site_type_symbol
 _atom_site_label
 _atom_site_symmetry_multiplicity
 _atom_site_fract_x
 _atom_site_fract_y
 _atom_site_fract_z
 _atom_site_occupancy
  H  H0  1  0.25000000  0.20647129  0.06162999  1
  H  H1  1  0.75000000  0.79352871  0.93837001  1
  H  H2  1  0.25000000  0.24174085  0.68208790  1
  H  H3  1  0.75000000  0.75825915  0.31791210  1
  H  H4  1  0.25000000  0.69833639  0.67050165  1
  H  H5  1  0.75000000  0.30166361  0.32949835  1
  He  He6  1  0.25000000  0.64137487  0.15260796  1
  He  He7  1  0.75000000  0.35862513  0.84739204  1
