# generated using pymatgen
data_H2He
_symmetry_space_group_name_H-M   'P 1'
_cell_length_a   6.60771639
_cell_length_b   6.60771639
_cell_length_c   8.11769193
_cell_angle_alpha   90.00000000
_cell_angle_beta   90.00000000
_cell_angle_gamma   90.00000000
_symmetry_Int_Tables_number   1
_chemical_formula_structural   H2He
_chemical_formula_sum   'H16 He8'
_cell_volume   354.43398208
_cell_formula_units_Z   8
loop_
 _symmetry_equiv_pos_site_id
 _symmetry_equiv_pos_as_xyz
  1  'x, y, z'
loop_
 _atom_site_type_symbol
 _atom_site_label
 _atom_site_symmetry_multiplicity
 _atom_site_fract_x
 _atom_site_fract_y
 _atom_site_fract_z
 _atom_site_occupancy
  H  H0  1  0.30928485  0.33451123  0.42969747  1
  H  H1  1  0.69071515  0.66548877  0.42969747  1
  H  H2  1  0.33451123  0.69071515  0.57030253  1
  H  H3  1  0.66548877  0.30928485  0.57030253  1
  H  H4  1  0.30928485  0.66548877  0.92969747  1
  H  H5  1  0.69071515  0.33451123  0.92969747  1
  H  H6  1  0.33451123  0.30928485  0.07030253  1
  H  H7  1  0.66548877  0.69071515  0.07030253  1
  H  H8  1  0.50000000  -0.00000000  0.38754642  1
  H  H9  1  0.00000000  0.50000000  0.61245358  1
  H  H10  1  0.50000000  -0.00000000  0.88754642  1
  H  H11  1  0.00000000  0.50000000  0.11245358  1
  H  H12  1  0.67649427  0.32350573  0.25000000  1
  H  H13  1  0.32350573  0.67649427  0.25000000  1
  H  H14  1  0.32350573  0.32350573  0.75000000  1
  H  H15  1  0.67649427  0.67649427  0.75000000  1
  He  He16  1  0.53893147  0.23999312  0.40370434  1
  He  He17  1  0.46106853  0.76000688  0.40370434  1
  He  He18  1  0.23999312  0.46106853  0.59629566  1
  He  He19  1  0.76000688  0.53893147  0.59629566  1
  He  He20  1  0.53893147  0.76000688  0.90370434  1
  He  He21  1  0.46106853  0.23999312  0.90370434  1
  He  He22  1  0.23999312  0.53893147  0.09629566  1
  He  He23  1  0.76000688  0.46106853  0.09629566  1
