# generated using pymatgen
data_HHe3Li3
_symmetry_space_group_name_H-M   'P 1'
_cell_length_a   9.45241228
_cell_length_b   9.45346792
_cell_length_c   3.88491768
_cell_angle_alpha   90.00000000
_cell_angle_beta   90.00000000
_cell_angle_gamma   119.98831759
_symmetry_Int_Tables_number   1
_chemical_formula_structural   HHe3Li3
_chemical_formula_sum   'H2 He6 Li6'
_cell_volume   300.67503884
_cell_formula_units_Z   2
loop_
 _symmetry_equiv_pos_site_id
 _symmetry_equiv_pos_as_xyz
  1  'x, y, z'
loop_
 _atom_site_type_symbol
 _atom_site_label
 _atom_site_symmetry_multiplicity
 _atom_site_fract_x
 _atom_site_fract_y
 _atom_site_fract_z
 _atom_site_occupancy
  H  H0  1  0.33320890  0.66645125  0.25000000  1
  H  H1  1  0.66679110  0.33354875  0.75000000  1
  He  He2  1  0.16353695  0.59506626  0.25000000  1
  He  He3  1  0.40491306  0.56845139  0.25000000  1
  He  He4  1  0.43166245  0.83667105  0.25000000  1
  He  He5  1  0.83646305  0.40493374  0.75000000  1
  He  He6  1  0.59508694  0.43154861  0.75000000  1
  He  He7  1  0.56833755  0.16332895  0.75000000  1
  Li  Li8  1  0.35869020  0.05685879  0.25000000  1
  Li  Li9  1  0.94314195  0.30183731  0.25000000  1
  Li  Li10  1  0.69816131  0.64131157  0.25000000  1
  Li  Li11  1  0.64130980  0.94314121  0.75000000  1
  Li  Li12  1  0.05685805  0.69816269  0.75000000  1
  Li  Li13  1  0.30183869  0.35868843  0.75000000  1
