# generated using pymatgen
data_H3He4
_symmetry_space_group_name_H-M   'P 1'
_cell_length_a   6.05546793
_cell_length_b   6.05546793
_cell_length_c   6.05546793
_cell_angle_alpha   60.00000000
_cell_angle_beta   60.00000000
_cell_angle_gamma   60.00000000
_symmetry_Int_Tables_number   1
_chemical_formula_structural   H3He4
_chemical_formula_sum   'H6 He8'
_cell_volume   157.01029446
_cell_formula_units_Z   2
loop_
 _symmetry_equiv_pos_site_id
 _symmetry_equiv_pos_as_xyz
  1  'x, y, z'
loop_
 _atom_site_type_symbol
 _atom_site_label
 _atom_site_symmetry_multiplicity
 _atom_site_fract_x
 _atom_site_fract_y
 _atom_site_fract_z
 _atom_site_occupancy
  H  H0  1  0.87500000  0.87500000  0.87500000  1
  H  H1  1  0.12500000  0.12500000  0.12500000  1
  H  H2  1  0.50000000  0.50000000  0.50000000  1
  H  H3  1  -0.00000000  0.50000000  0.50000000  1
  H  H4  1  0.50000000  0.00000000  0.50000000  1
  H  H5  1  0.50000000  0.50000000  0.00000000  1
  He  He6  1  0.74437608  0.74437608  0.74437608  1
  He  He7  1  0.26687176  0.74437608  0.74437608  1
  He  He8  1  0.74437608  0.26687176  0.74437608  1
  He  He9  1  0.74437608  0.74437608  0.26687176  1
  He  He10  1  0.73312824  0.25562392  0.25562392  1
  He  He11  1  0.25562392  0.25562392  0.25562392  1
  He  He12  1  0.25562392  0.73312824  0.25562392  1
  He  He13  1  0.25562392  0.25562392  0.73312824  1
