# generated using pymatgen
data_H7He2LiBe
_symmetry_space_group_name_H-M   'P 1'
_cell_length_a   6.14420329
_cell_length_b   7.48061583
_cell_length_c   13.62764816
_cell_angle_alpha   90.00000000
_cell_angle_beta   90.00000000
_cell_angle_gamma   90.00000000
_symmetry_Int_Tables_number   1
_chemical_formula_structural   H7He2LiBe
_chemical_formula_sum   'H28 He8 Li4 Be4'
_cell_volume   626.35974837
_cell_formula_units_Z   4
loop_
 _symmetry_equiv_pos_site_id
 _symmetry_equiv_pos_as_xyz
  1  'x, y, z'
loop_
 _atom_site_type_symbol
 _atom_site_label
 _atom_site_symmetry_multiplicity
 _atom_site_fract_x
 _atom_site_fract_y
 _atom_site_fract_z
 _atom_site_occupancy
  H  H0  1  0.25000000  0.52685190  0.16108095  1
  H  H1  1  0.75000000  0.02685190  0.33891905  1
  H  H2  1  0.75000000  0.47314810  0.83891905  1
  H  H3  1  0.25000000  0.97314810  0.66108095  1
  H  H4  1  0.75000000  0.40343570  0.02205537  1
  H  H5  1  0.25000000  0.90343570  0.47794463  1
  H  H6  1  0.25000000  0.59656430  0.97794463  1
  H  H7  1  0.75000000  0.09656430  0.52205537  1
  H  H8  1  0.03856558  0.79220906  0.09629791  1
  H  H9  1  0.96143442  0.29220906  0.40370209  1
  H  H10  1  0.53856558  0.20779094  0.90370209  1
  H  H11  1  0.46143442  0.70779094  0.59629791  1
  H  H12  1  0.96143442  0.20779094  0.90370209  1
  H  H13  1  0.03856558  0.70779094  0.59629791  1
  H  H14  1  0.46143442  0.79220906  0.09629791  1
  H  H15  1  0.53856558  0.29220906  0.40370209  1
  H  H16  1  0.75000000  0.41149024  0.20770751  1
  H  H17  1  0.25000000  0.91149024  0.29229249  1
  H  H18  1  0.25000000  0.58850976  0.79229249  1
  H  H19  1  0.75000000  0.08850976  0.70770751  1
  H  H20  1  0.95888829  0.16676813  0.11955286  1
  H  H21  1  0.04111171  0.66676813  0.38044714  1
  H  H22  1  0.45888829  0.83323187  0.88044714  1
  H  H23  1  0.54111171  0.33323187  0.61955286  1
  H  H24  1  0.04111171  0.83323187  0.88044714  1
  H  H25  1  0.95888829  0.33323187  0.61955286  1
  H  H26  1  0.54111171  0.16676813  0.11955286  1
  H  H27  1  0.45888829  0.66676813  0.38044714  1
  He  He28  1  0.75000000  0.28571339  0.12173418  1
  He  He29  1  0.25000000  0.78571339  0.37826582  1
  He  He30  1  0.25000000  0.71428661  0.87826582  1
  He  He31  1  0.75000000  0.21428661  0.62173418  1
  He  He32  1  0.25000000  0.67765491  0.08931093  1
  He  He33  1  0.75000000  0.17765491  0.41068907  1
  He  He34  1  0.75000000  0.32234509  0.91068907  1
  He  He35  1  0.25000000  0.82234509  0.58931093  1
  Li  Li36  1  0.75000000  0.73950274  0.24374889  1
  Li  Li37  1  0.25000000  0.23950274  0.25625111  1
  Li  Li38  1  0.25000000  0.26049726  0.75625111  1
  Li  Li39  1  0.75000000  0.76049726  0.74374889  1
  Be  Be40  1  -0.00000000  0.00000000  -0.00000000  1
  Be  Be41  1  0.00000000  0.50000000  0.50000000  1
  Be  Be42  1  0.50000000  0.00000000  0.00000000  1
  Be  Be43  1  0.50000000  0.50000000  0.50000000  1
