# generated using pymatgen
data_H2He3Li
_symmetry_space_group_name_H-M   'P 1'
_cell_length_a   5.79919181
_cell_length_b   5.79919181
_cell_length_c   5.79919181
_cell_angle_alpha   51.80746995
_cell_angle_beta   51.80746995
_cell_angle_gamma   51.80746995
_symmetry_Int_Tables_number   1
_chemical_formula_structural   H2He3Li
_chemical_formula_sum   'H4 He6 Li2'
_cell_volume   111.33023871
_cell_formula_units_Z   2
loop_
 _symmetry_equiv_pos_site_id
 _symmetry_equiv_pos_as_xyz
  1  'x, y, z'
loop_
 _atom_site_type_symbol
 _atom_site_label
 _atom_site_symmetry_multiplicity
 _atom_site_fract_x
 _atom_site_fract_y
 _atom_site_fract_z
 _atom_site_occupancy
  H  H0  1  0.67637232  0.67637232  0.67637232  1
  H  H1  1  0.17637232  0.17637232  0.17637232  1
  H  H2  1  0.82468303  0.82468303  0.82468303  1
  H  H3  1  0.32468303  0.32468303  0.32468303  1
  He  He4  1  0.75071147  0.40321207  0.09812375  1
  He  He5  1  0.40321207  0.09812375  0.75071147  1
  He  He6  1  0.09812375  0.75071147  0.40321207  1
  He  He7  1  0.59812375  0.90321207  0.25071147  1
  He  He8  1  0.25071147  0.59812375  0.90321207  1
  He  He9  1  0.90321207  0.25071147  0.59812375  1
  Li  Li10  1  0.00059737  0.00059737  0.00059737  1
  Li  Li11  1  0.50059737  0.50059737  0.50059737  1
