# generated using pymatgen
data_H3He2
_symmetry_space_group_name_H-M   'P 1'
_cell_length_a   8.83659067
_cell_length_b   8.83659067
_cell_length_c   12.41409986
_cell_angle_alpha   90.00000000
_cell_angle_beta   90.00000000
_cell_angle_gamma   90.00000000
_symmetry_Int_Tables_number   1
_chemical_formula_structural   H3He2
_chemical_formula_sum   'H24 He16'
_cell_volume   969.35914243
_cell_formula_units_Z   8
loop_
 _symmetry_equiv_pos_site_id
 _symmetry_equiv_pos_as_xyz
  1  'x, y, z'
loop_
 _atom_site_type_symbol
 _atom_site_label
 _atom_site_symmetry_multiplicity
 _atom_site_fract_x
 _atom_site_fract_y
 _atom_site_fract_z
 _atom_site_occupancy
  H  H0  1  0.00000000  0.21455844  0.10289409  1
  H  H1  1  0.00000000  0.78544156  0.10289409  1
  H  H2  1  0.28544156  0.50000000  0.60289409  1
  H  H3  1  0.71455844  0.50000000  0.60289409  1
  H  H4  1  0.50000000  0.71455844  0.39710591  1
  H  H5  1  0.50000000  0.28544156  0.39710591  1
  H  H6  1  0.21455844  0.00000000  0.89710591  1
  H  H7  1  0.78544156  0.00000000  0.89710591  1
  H  H8  1  0.00000000  0.28810918  0.38221180  1
  H  H9  1  0.00000000  0.71189082  0.38221180  1
  H  H10  1  0.21189082  0.50000000  0.88221180  1
  H  H11  1  0.78810918  0.50000000  0.88221180  1
  H  H12  1  0.50000000  0.78810918  0.11778820  1
  H  H13  1  0.50000000  0.21189082  0.11778820  1
  H  H14  1  0.28810918  0.00000000  0.61778820  1
  H  H15  1  0.71189082  0.00000000  0.61778820  1
  H  H16  1  -0.00000000  0.24445878  0.64801821  1
  H  H17  1  -0.00000000  0.75554122  0.64801821  1
  H  H18  1  0.25554122  0.50000000  0.14801821  1
  H  H19  1  0.74445878  0.50000000  0.14801821  1
  H  H20  1  0.50000000  0.74445878  0.85198179  1
  H  H21  1  0.50000000  0.25554122  0.85198179  1
  H  H22  1  0.24445878  0.00000000  0.35198179  1
  H  H23  1  0.75554122  0.00000000  0.35198179  1
  He  He24  1  0.00000000  0.00000000  0.24502837  1
  He  He25  1  0.50000000  0.50000000  0.74502837  1
  He  He26  1  0.50000000  0.50000000  0.25497163  1
  He  He27  1  -0.00000000  -0.00000000  0.75497163  1
  He  He28  1  0.00000000  0.50000000  0.24086656  1
  He  He29  1  0.00000000  0.50000000  0.74086656  1
  He  He30  1  0.50000000  -0.00000000  0.25913344  1
  He  He31  1  0.50000000  0.00000000  0.75913344  1
  He  He32  1  0.25673553  0.25673553  0.00000000  1
  He  He33  1  0.74326447  0.74326447  0.00000000  1
  He  He34  1  0.24326447  0.75673553  0.50000000  1
  He  He35  1  0.75673553  0.24326447  0.50000000  1
  He  He36  1  0.24326447  0.24326447  0.50000000  1
  He  He37  1  0.75673553  0.75673553  0.50000000  1
  He  He38  1  0.25673553  0.74326447  -0.00000000  1
  He  He39  1  0.74326447  0.25673553  -0.00000000  1
