# generated using pymatgen
data_H2He3Li7
_symmetry_space_group_name_H-M   'P 1'
_cell_length_a   10.37761033
_cell_length_b   10.37785407
_cell_length_c   6.02029841
_cell_angle_alpha   90.00000000
_cell_angle_beta   90.00000000
_cell_angle_gamma   120.00313800
_symmetry_Int_Tables_number   1
_chemical_formula_structural   H2He3Li7
_chemical_formula_sum   'H4 He6 Li14'
_cell_volume   561.48716744
_cell_formula_units_Z   2
loop_
 _symmetry_equiv_pos_site_id
 _symmetry_equiv_pos_as_xyz
  1  'x, y, z'
loop_
 _atom_site_type_symbol
 _atom_site_label
 _atom_site_symmetry_multiplicity
 _atom_site_fract_x
 _atom_site_fract_y
 _atom_site_fract_z
 _atom_site_occupancy
  H  H0  1  0.00000441  0.99999881  0.02253726  1
  H  H1  1  0.99999559  0.00000119  0.52253726  1
  H  H2  1  0.33330673  0.66665821  0.66923781  1
  H  H3  1  0.66669327  0.33334179  0.16923781  1
  He  He4  1  0.13804254  0.37454302  0.25158199  1
  He  He5  1  0.62543496  0.76347916  0.25158610  1
  He  He6  1  0.23651409  0.86198256  0.25164516  1
  He  He7  1  0.86195746  0.62545698  0.75158199  1
  He  He8  1  0.37456504  0.23652084  0.75158610  1
  He  He9  1  0.76348591  0.13801744  0.75164516  1
  Li  Li10  1  0.08680150  0.23394896  0.78272897  1
  Li  Li11  1  0.76599722  0.85280848  0.78271737  1
  Li  Li12  1  0.14715309  0.91321463  0.78272813  1
  Li  Li13  1  0.91319850  0.76605104  0.28272897  1
  Li  Li14  1  0.23400278  0.14719152  0.28271737  1
  Li  Li15  1  0.85284691  0.08678537  0.28272813  1
  Li  Li16  1  0.41587413  0.51632255  0.52413957  1
  Li  Li17  1  0.48366752  0.89957232  0.52415222  1
  Li  Li18  1  0.10040424  0.58409072  0.52411325  1
  Li  Li19  1  0.58412587  0.48367745  0.02413957  1
  Li  Li20  1  0.51633248  0.10042768  0.02415222  1
  Li  Li21  1  0.89959576  0.41590928  0.02411325  1
  Li  Li22  1  0.33330984  0.66668463  0.04383214  1
  Li  Li23  1  0.66669016  0.33331537  0.54383214  1
