# generated using pymatgen
data_H13HeLi4
_symmetry_space_group_name_H-M   'P 1'
_cell_length_a   7.84818291
_cell_length_b   7.84818291
_cell_length_c   7.84818291
_cell_angle_alpha   98.21284073
_cell_angle_beta   98.21284073
_cell_angle_gamma   135.58573786
_symmetry_Int_Tables_number   1
_chemical_formula_structural   H13HeLi4
_chemical_formula_sum   'H13 He1 Li4'
_cell_volume   313.20959541
_cell_formula_units_Z   1
loop_
 _symmetry_equiv_pos_site_id
 _symmetry_equiv_pos_as_xyz
  1  'x, y, z'
loop_
 _atom_site_type_symbol
 _atom_site_label
 _atom_site_symmetry_multiplicity
 _atom_site_fract_x
 _atom_site_fract_y
 _atom_site_fract_z
 _atom_site_occupancy
  H  H0  1  0.00000000  0.00000000  0.00000000  1
  H  H1  1  0.11413336  0.42338139  0.53751475  1
  H  H2  1  0.88586664  0.57661861  0.46248525  1
  H  H3  1  0.57661861  0.11413336  0.69075196  1
  H  H4  1  0.42338139  0.88586664  0.30924804  1
  H  H5  1  0.64806427  0.55746264  0.68825036  1
  H  H6  1  0.86921228  0.95981391  0.31174964  1
  H  H7  1  0.95981391  0.64806427  0.09060163  1
  H  H8  1  0.55746264  0.86921228  0.90939837  1
  H  H9  1  0.35193573  0.44253736  0.31174964  1
  H  H10  1  0.13078772  0.04018609  0.68825036  1
  H  H11  1  0.04018609  0.35193573  0.90939837  1
  H  H12  1  0.44253736  0.13078772  0.09060163  1
  He  He13  1  0.50000000  0.50000000  0.00000000  1
  Li  Li14  1  0.73156681  0.99871549  0.73028230  1
  Li  Li15  1  0.26843319  0.00128451  0.26971770  1
  Li  Li16  1  0.00128451  0.73156681  0.73285131  1
  Li  Li17  1  0.99871549  0.26843319  0.26714869  1
