# generated using pymatgen
data_HHeLi3
_symmetry_space_group_name_H-M   'P 1'
_cell_length_a   5.32654105
_cell_length_b   5.32654105
_cell_length_c   7.71928691
_cell_angle_alpha   90.00000000
_cell_angle_beta   90.00000000
_cell_angle_gamma   145.31635861
_symmetry_Int_Tables_number   1
_chemical_formula_structural   HHeLi3
_chemical_formula_sum   'H2 He2 Li6'
_cell_volume   124.62758371
_cell_formula_units_Z   2
loop_
 _symmetry_equiv_pos_site_id
 _symmetry_equiv_pos_as_xyz
  1  'x, y, z'
loop_
 _atom_site_type_symbol
 _atom_site_label
 _atom_site_symmetry_multiplicity
 _atom_site_fract_x
 _atom_site_fract_y
 _atom_site_fract_z
 _atom_site_occupancy
  H  H0  1  0.24250296  0.75749704  0.75000000  1
  H  H1  1  0.75749704  0.24250296  0.25000000  1
  He  He2  1  0.50000000  0.50000000  0.00000000  1
  He  He3  1  0.50000000  0.50000000  0.50000000  1
  Li  Li4  1  0.87307948  0.12692052  0.94814530  1
  Li  Li5  1  0.12692052  0.87307948  0.44814530  1
  Li  Li6  1  0.87307948  0.12692052  0.55185470  1
  Li  Li7  1  0.12692052  0.87307948  0.05185470  1
  Li  Li8  1  0.54482861  0.45517139  0.75000000  1
  Li  Li9  1  0.45517139  0.54482861  0.25000000  1
