# generated using pymatgen
data_H4HeLi6
_symmetry_space_group_name_H-M   'P 1'
_cell_length_a   7.25982558
_cell_length_b   7.25982558
_cell_length_c   12.66990635
_cell_angle_alpha   72.62200328
_cell_angle_beta   72.62200328
_cell_angle_gamma   59.90827556
_symmetry_Int_Tables_number   1
_chemical_formula_structural   H4HeLi6
_chemical_formula_sum   'H8 He2 Li12'
_cell_volume   542.35495835
_cell_formula_units_Z   2
loop_
 _symmetry_equiv_pos_site_id
 _symmetry_equiv_pos_as_xyz
  1  'x, y, z'
loop_
 _atom_site_type_symbol
 _atom_site_label
 _atom_site_symmetry_multiplicity
 _atom_site_fract_x
 _atom_site_fract_y
 _atom_site_fract_z
 _atom_site_occupancy
  H  H0  1  0.23514531  0.45076470  0.99830455  1
  H  H1  1  0.45076470  0.23514531  0.49830455  1
  H  H2  1  0.91843505  0.07941089  0.00011623  1
  H  H3  1  0.07941089  0.91843505  0.50011623  1
  H  H4  1  0.70476955  0.92970207  0.80935425  1
  H  H5  1  0.92970207  0.70476955  0.30935425  1
  H  H6  1  0.83490231  0.43075118  0.65600733  1
  H  H7  1  0.43075118  0.83490231  0.15600733  1
  He  He8  1  0.29406077  0.83900107  0.74635924  1
  He  He9  1  0.83900107  0.29406077  0.24635924  1
  Li  Li10  1  0.11786478  0.16111692  0.79646605  1
  Li  Li11  1  0.16111692  0.11786478  0.29646605  1
  Li  Li12  1  0.11476875  0.64313797  0.80311994  1
  Li  Li13  1  0.64313797  0.11476875  0.30311994  1
  Li  Li14  1  0.07796230  0.56578596  0.49350871  1
  Li  Li15  1  0.56578596  0.07796230  0.99350871  1
  Li  Li16  1  0.59278116  0.63515273  0.82293153  1
  Li  Li17  1  0.63515273  0.59278116  0.32293153  1
  Li  Li18  1  0.41250561  0.86933236  0.56119865  1
  Li  Li19  1  0.86933236  0.41250561  0.06119865  1
  Li  Li20  1  0.72604765  0.17060092  0.61463354  1
  Li  Li21  1  0.17060092  0.72604765  0.11463354  1
