# generated using pymatgen
data_H8He6Li3Be2B
_symmetry_space_group_name_H-M   'P 1'
_cell_length_a   10.20380057
_cell_length_b   10.20380057
_cell_length_c   13.30839742
_cell_angle_alpha   80.88204892
_cell_angle_beta   80.88204892
_cell_angle_gamma   38.97319981
_symmetry_Int_Tables_number   1
_chemical_formula_structural   H8He6Li3Be2B
_chemical_formula_sum   'H16 He12 Li6 Be4 B2'
_cell_volume   859.10526574
_cell_formula_units_Z   2
loop_
 _symmetry_equiv_pos_site_id
 _symmetry_equiv_pos_as_xyz
  1  'x, y, z'
loop_
 _atom_site_type_symbol
 _atom_site_label
 _atom_site_symmetry_multiplicity
 _atom_site_fract_x
 _atom_site_fract_y
 _atom_site_fract_z
 _atom_site_occupancy
  H  H0  1  0.65262395  0.22565748  0.96744316  1
  H  H1  1  0.77434252  0.34737605  0.53255684  1
  H  H2  1  0.34737605  0.77434252  0.03255684  1
  H  H3  1  0.22565748  0.65262395  0.46744316  1
  H  H4  1  0.89040759  0.40733274  0.00950450  1
  H  H5  1  0.59266726  0.10959241  0.49049550  1
  H  H6  1  0.10959241  0.59266726  0.99049550  1
  H  H7  1  0.40733274  0.89040759  0.50950450  1
  H  H8  1  0.52802262  0.98071035  0.14710478  1
  H  H9  1  0.01928965  0.47197738  0.35289522  1
  H  H10  1  0.47197738  0.01928965  0.85289522  1
  H  H11  1  0.98071035  0.52802262  0.64710478  1
  H  H12  1  0.07706425  0.08957656  0.77338765  1
  H  H13  1  0.91042344  0.92293575  0.72661235  1
  H  H14  1  0.92293575  0.91042344  0.22661235  1
  H  H15  1  0.08957656  0.07706425  0.27338765  1
  He  He16  1  0.49396468  0.74394944  0.78321960  1
  He  He17  1  0.25605056  0.50603532  0.71678040  1
  He  He18  1  0.50603532  0.25605056  0.21678040  1
  He  He19  1  0.74394944  0.49396468  0.28321960  1
  He  He20  1  0.61510729  0.55596417  0.70727456  1
  He  He21  1  0.44403583  0.38489271  0.79272544  1
  He  He22  1  0.38489271  0.44403583  0.29272544  1
  He  He23  1  0.55596417  0.61510729  0.20727456  1
  He  He24  1  0.58359066  0.52688842  0.83178685  1
  He  He25  1  0.47311158  0.41640934  0.66821315  1
  He  He26  1  0.41640934  0.47311158  0.16821315  1
  He  He27  1  0.52688842  0.58359066  0.33178685  1
  Li  Li28  1  0.00000000  0.00000000  0.00000000  1
  Li  Li29  1  -0.00000000  0.00000000  0.50000000  1
  Li  Li30  1  0.21128712  0.18314217  0.08009564  1
  Li  Li31  1  0.81685783  0.78871288  0.41990436  1
  Li  Li32  1  0.78871288  0.81685783  0.91990436  1
  Li  Li33  1  0.18314217  0.21128712  0.58009564  1
  Be  Be34  1  0.51429777  0.63242389  0.77007559  1
  Be  Be35  1  0.36757611  0.48570223  0.72992441  1
  Be  Be36  1  0.48570223  0.36757611  0.22992441  1
  Be  Be37  1  0.63242389  0.51429777  0.27007559  1
  B  B38  1  0.22836176  0.77163824  0.75000000  1
  B  B39  1  0.77163824  0.22836176  0.25000000  1
