# generated using pymatgen
data_H2He
_symmetry_space_group_name_H-M   'P 1'
_cell_length_a   5.56309234
_cell_length_b   5.56309234
_cell_length_c   5.56309234
_cell_angle_alpha   139.28164544
_cell_angle_beta   139.28164544
_cell_angle_gamma   58.94565950
_symmetry_Int_Tables_number   1
_chemical_formula_structural   H2He
_chemical_formula_sum   'H4 He2'
_cell_volume   72.56734887
_cell_formula_units_Z   2
loop_
 _symmetry_equiv_pos_site_id
 _symmetry_equiv_pos_as_xyz
  1  'x, y, z'
loop_
 _atom_site_type_symbol
 _atom_site_label
 _atom_site_symmetry_multiplicity
 _atom_site_fract_x
 _atom_site_fract_y
 _atom_site_fract_z
 _atom_site_occupancy
  H  H0  1  0.79222389  0.79222389  0.00000000  1
  H  H1  1  0.54222389  0.04222389  0.50000000  1
  H  H2  1  0.95777611  0.45777611  0.50000000  1
  H  H3  1  0.20777611  0.20777611  0.00000000  1
  He  He4  1  0.00000000  -0.00000000  0.00000000  1
  He  He5  1  0.75000000  0.25000000  0.50000000  1
