# generated using pymatgen
data_H2He2Li9Be2
_symmetry_space_group_name_H-M   'P 1'
_cell_length_a   8.26002286
_cell_length_b   7.22150734
_cell_length_c   4.99191381
_cell_angle_alpha   71.33863836
_cell_angle_beta   71.73240194
_cell_angle_gamma   72.05730929
_symmetry_Int_Tables_number   1
_chemical_formula_structural   H2He2Li9Be2
_chemical_formula_sum   'H2 He2 Li9 Be2'
_cell_volume   260.65295436
_cell_formula_units_Z   1
loop_
 _symmetry_equiv_pos_site_id
 _symmetry_equiv_pos_as_xyz
  1  'x, y, z'
loop_
 _atom_site_type_symbol
 _atom_site_label
 _atom_site_symmetry_multiplicity
 _atom_site_fract_x
 _atom_site_fract_y
 _atom_site_fract_z
 _atom_site_occupancy
  H  H0  1  0.03280459  0.23515684  0.81851658  1
  H  H1  1  0.96719541  0.76484316  0.18148342  1
  He  He2  1  0.64968641  0.20403095  0.57863300  1
  He  He3  1  0.35031359  0.79596905  0.42136700  1
  Li  Li4  1  0.20056177  0.30016793  0.89659826  1
  Li  Li5  1  0.79943823  0.69983207  0.10340174  1
  Li  Li6  1  0.16937327  0.58459924  0.11157726  1
  Li  Li7  1  0.83062673  0.41540076  0.88842274  1
  Li  Li8  1  0.90824007  0.74269341  0.56353900  1
  Li  Li9  1  0.09175993  0.25730659  0.43646100  1
  Li  Li10  1  0.58694847  0.73274718  0.81264944  1
  Li  Li11  1  0.41305153  0.26725282  0.18735056  1
  Li  Li12  1  0.00000000  0.00000000  -0.00000000  1
  Be  Be13  1  0.77409787  0.64989689  0.83725620  1
  Be  Be14  1  0.22590213  0.35010311  0.16274380  1
