# generated using pymatgen
data_HHeLi3
_symmetry_space_group_name_H-M   'P 1'
_cell_length_a   13.17057758
_cell_length_b   6.27485195
_cell_length_c   7.85957952
_cell_angle_alpha   73.37724197
_cell_angle_beta   90.00000000
_cell_angle_gamma   90.00000000
_symmetry_Int_Tables_number   1
_chemical_formula_structural   HHeLi3
_chemical_formula_sum   'H4 He4 Li12'
_cell_volume   622.39754648
_cell_formula_units_Z   4
loop_
 _symmetry_equiv_pos_site_id
 _symmetry_equiv_pos_as_xyz
  1  'x, y, z'
loop_
 _atom_site_type_symbol
 _atom_site_label
 _atom_site_symmetry_multiplicity
 _atom_site_fract_x
 _atom_site_fract_y
 _atom_site_fract_z
 _atom_site_occupancy
  H  H0  1  0.73184629  0.84158821  0.70667221  1
  H  H1  1  0.23184629  0.65841179  0.29332779  1
  H  H2  1  0.26815371  0.15841179  0.29332779  1
  H  H3  1  0.76815371  0.34158821  0.70667221  1
  He  He4  1  0.57812637  0.78545779  0.25877694  1
  He  He5  1  0.07812637  0.71454221  0.74122306  1
  He  He6  1  0.42187363  0.21454221  0.74122306  1
  He  He7  1  0.92187363  0.28545779  0.25877694  1
  Li  Li8  1  0.81835029  0.83801149  0.93199405  1
  Li  Li9  1  0.31835029  0.66198851  0.06800595  1
  Li  Li10  1  0.18164971  0.16198851  0.06800595  1
  Li  Li11  1  0.68164971  0.33801149  0.93199405  1
  Li  Li12  1  0.59739434  0.68499870  0.79990139  1
  Li  Li13  1  0.09739434  0.81500130  0.20009861  1
  Li  Li14  1  0.40260566  0.31500130  0.20009861  1
  Li  Li15  1  0.90260566  0.18499870  0.79990139  1
  Li  Li16  1  0.80186199  0.65973486  0.55451645  1
  Li  Li17  1  0.30186199  0.84026514  0.44548355  1
  Li  Li18  1  0.19813801  0.34026514  0.44548355  1
  Li  Li19  1  0.69813801  0.15973486  0.55451645  1
