# generated using pymatgen
data_H2He
_symmetry_space_group_name_H-M   'P 1'
_cell_length_a   7.62830159
_cell_length_b   7.62830159
_cell_length_c   3.68129621
_cell_angle_alpha   90.00000000
_cell_angle_beta   90.00000000
_cell_angle_gamma   151.87354514
_symmetry_Int_Tables_number   1
_chemical_formula_structural   H2He
_chemical_formula_sum   'H4 He2'
_cell_volume   100.98658267
_cell_formula_units_Z   2
loop_
 _symmetry_equiv_pos_site_id
 _symmetry_equiv_pos_as_xyz
  1  'x, y, z'
loop_
 _atom_site_type_symbol
 _atom_site_label
 _atom_site_symmetry_multiplicity
 _atom_site_fract_x
 _atom_site_fract_y
 _atom_site_fract_z
 _atom_site_occupancy
  H  H0  1  0.55305969  0.44694031  0.75000000  1
  H  H1  1  0.44694031  0.55305969  0.25000000  1
  H  H2  1  0.25019462  0.74980538  0.75000000  1
  H  H3  1  0.74980538  0.25019462  0.25000000  1
  He  He4  1  0.89462520  0.10537480  0.75000000  1
  He  He5  1  0.10537480  0.89462520  0.25000000  1
