# generated using pymatgen
data_HHe
_symmetry_space_group_name_H-M   'P 1'
_cell_length_a   7.09323400
_cell_length_b   7.28312313
_cell_length_c   12.41425750
_cell_angle_alpha   82.75400350
_cell_angle_beta   90.00000000
_cell_angle_gamma   90.00000000
_symmetry_Int_Tables_number   1
_chemical_formula_structural   HHe
_chemical_formula_sum   'H8 He8'
_cell_volume   636.20984728
_cell_formula_units_Z   8
loop_
 _symmetry_equiv_pos_site_id
 _symmetry_equiv_pos_as_xyz
  1  'x, y, z'
loop_
 _atom_site_type_symbol
 _atom_site_label
 _atom_site_symmetry_multiplicity
 _atom_site_fract_x
 _atom_site_fract_y
 _atom_site_fract_z
 _atom_site_occupancy
  H  H0  1  0.59970153  0.11096927  0.66955152  1
  H  H1  1  0.09970153  0.38903073  0.83044848  1
  H  H2  1  0.40029847  0.88903073  0.33044848  1
  H  H3  1  0.90029847  0.61096927  0.16955152  1
  H  H4  1  0.33160175  0.79291440  0.96503323  1
  H  H5  1  0.83160175  0.70708560  0.53496677  1
  H  H6  1  0.66839825  0.20708560  0.03496677  1
  H  H7  1  0.16839825  0.29291440  0.46503323  1
  He  He8  1  0.09775291  0.96517335  0.71297531  1
  He  He9  1  0.59775291  0.53482665  0.78702469  1
  He  He10  1  0.90224709  0.03482665  0.28702469  1
  He  He11  1  0.40224709  0.46517335  0.21297531  1
  He  He12  1  0.83178821  0.80188489  0.87659348  1
  He  He13  1  0.33178821  0.69811511  0.62340652  1
  He  He14  1  0.16821179  0.19811511  0.12340652  1
  He  He15  1  0.66821179  0.30188489  0.37659348  1
