# generated using pymatgen
data_H4He2Li(BeB4)3
_symmetry_space_group_name_H-M   'P 1'
_cell_length_a   5.14202700
_cell_length_b   5.14202700
_cell_length_c   23.07456163
_cell_angle_alpha   90.00000000
_cell_angle_beta   90.00000000
_cell_angle_gamma   119.99678593
_symmetry_Int_Tables_number   1
_chemical_formula_structural   H4He2Li(BeB4)3
_chemical_formula_sum   'H8 He4 Li2 Be6 B24'
_cell_volume   528.38059657
_cell_formula_units_Z   2
loop_
 _symmetry_equiv_pos_site_id
 _symmetry_equiv_pos_as_xyz
  1  'x, y, z'
loop_
 _atom_site_type_symbol
 _atom_site_label
 _atom_site_symmetry_multiplicity
 _atom_site_fract_x
 _atom_site_fract_y
 _atom_site_fract_z
 _atom_site_occupancy
  H  H0  1  0.00000014  -0.00000014  0.43663989  1
  H  H1  1  -0.00000014  0.00000014  0.93663989  1
  H  H2  1  -0.00000014  0.00000014  0.56336011  1
  H  H3  1  0.00000014  -0.00000014  0.06336011  1
  H  H4  1  0.33330360  0.66669640  0.32329046  1
  H  H5  1  0.66669640  0.33330360  0.82329046  1
  H  H6  1  0.66669640  0.33330360  0.67670954  1
  H  H7  1  0.33330360  0.66669640  0.17670954  1
  He  He8  1  0.66667507  0.33332493  0.35456908  1
  He  He9  1  0.33332493  0.66667507  0.85456908  1
  He  He10  1  0.33332493  0.66667507  0.64543092  1
  He  He11  1  0.66667507  0.33332493  0.14543092  1
  Li  Li12  1  0.66668531  0.33331469  0.25000000  1
  Li  Li13  1  0.33331469  0.66668531  0.75000000  1
  Be  Be14  1  0.33331055  0.66668945  0.47719555  1
  Be  Be15  1  0.66668945  0.33331055  0.97719555  1
  Be  Be16  1  0.66668945  0.33331055  0.52280445  1
  Be  Be17  1  0.33331055  0.66668945  0.02280445  1
  Be  Be18  1  -0.00000728  0.00000728  0.25000000  1
  Be  Be19  1  0.00000728  -0.00000728  0.75000000  1
  B  B20  1  0.29185899  0.14592204  0.43753753  1
  B  B21  1  0.85406913  0.14593087  0.43753859  1
  B  B22  1  0.85407796  0.70814101  0.43753753  1
  B  B23  1  0.70814101  0.85407796  0.93753753  1
  B  B24  1  0.14593087  0.85406913  0.93753859  1
  B  B25  1  0.14592204  0.29185899  0.93753753  1
  B  B26  1  0.14592204  0.29185899  0.56246247  1
  B  B27  1  0.14593087  0.85406913  0.56246141  1
  B  B28  1  0.70814101  0.85407796  0.56246247  1
  B  B29  1  0.85407796  0.70814101  0.06246247  1
  B  B30  1  0.85406913  0.14593087  0.06246141  1
  B  B31  1  0.29185899  0.14592204  0.06246247  1
  B  B32  1  0.18802020  0.37603197  0.32455846  1
  B  B33  1  0.62396803  0.81197980  0.32455846  1
  B  B34  1  0.18802890  0.81197110  0.32455882  1
  B  B35  1  0.81197980  0.62396803  0.82455846  1
  B  B36  1  0.37603197  0.18802020  0.82455846  1
  B  B37  1  0.81197110  0.18802890  0.82455882  1
  B  B38  1  0.37603197  0.18802020  0.67544154  1
  B  B39  1  0.81197980  0.62396803  0.67544154  1
  B  B40  1  0.81197110  0.18802890  0.67544118  1
  B  B41  1  0.62396803  0.81197980  0.17544154  1
  B  B42  1  0.18802020  0.37603197  0.17544154  1
  B  B43  1  0.18802890  0.81197110  0.17544118  1
