# generated using pymatgen
data_H2He
_symmetry_space_group_name_H-M   'P 1'
_cell_length_a   3.68613011
_cell_length_b   4.98295072
_cell_length_c   6.96853804
_cell_angle_alpha   90.00000000
_cell_angle_beta   90.00000000
_cell_angle_gamma   90.00000000
_symmetry_Int_Tables_number   1
_chemical_formula_structural   H2He
_chemical_formula_sum   'H8 He4'
_cell_volume   127.99674566
_cell_formula_units_Z   4
loop_
 _symmetry_equiv_pos_site_id
 _symmetry_equiv_pos_as_xyz
  1  'x, y, z'
loop_
 _atom_site_type_symbol
 _atom_site_label
 _atom_site_symmetry_multiplicity
 _atom_site_fract_x
 _atom_site_fract_y
 _atom_site_fract_z
 _atom_site_occupancy
  H  H0  1  0.25000000  0.33235186  0.93902217  1
  H  H1  1  0.75000000  0.16764814  0.43902217  1
  H  H2  1  0.75000000  0.66764814  0.06097783  1
  H  H3  1  0.25000000  0.83235186  0.56097783  1
  H  H4  1  0.25000000  0.96001123  0.20153090  1
  H  H5  1  0.75000000  0.53998877  0.70153090  1
  H  H6  1  0.75000000  0.03998877  0.79846910  1
  H  H7  1  0.25000000  0.46001123  0.29846910  1
  He  He8  1  0.25000000  0.28522949  0.61419504  1
  He  He9  1  0.75000000  0.21477051  0.11419504  1
  He  He10  1  0.75000000  0.71477051  0.38580496  1
  He  He11  1  0.25000000  0.78522949  0.88580496  1
