# generated using pymatgen
data_HHeLi
_symmetry_space_group_name_H-M   'P 1'
_cell_length_a   4.45861710
_cell_length_b   4.45866600
_cell_length_c   7.18618266
_cell_angle_alpha   90.00000000
_cell_angle_beta   90.00000000
_cell_angle_gamma   119.99963716
_symmetry_Int_Tables_number   1
_chemical_formula_structural   HHeLi
_chemical_formula_sum   'H2 He2 Li2'
_cell_volume   123.71876871
_cell_formula_units_Z   2
loop_
 _symmetry_equiv_pos_site_id
 _symmetry_equiv_pos_as_xyz
  1  'x, y, z'
loop_
 _atom_site_type_symbol
 _atom_site_label
 _atom_site_symmetry_multiplicity
 _atom_site_fract_x
 _atom_site_fract_y
 _atom_site_fract_z
 _atom_site_occupancy
  H  H0  1  0.00000848  0.00001697  0.23995449  1
  H  H1  1  0.99999152  0.99998303  0.73995449  1
  He  He2  1  0.66668254  0.33336509  0.44386232  1
  He  He3  1  0.33331746  0.66663491  0.94386232  1
  Li  Li4  1  0.66667935  0.33335870  0.05918319  1
  Li  Li5  1  0.33332065  0.66664130  0.55918319  1
