# generated using pymatgen
data_H2HeLiBe7
_symmetry_space_group_name_H-M   'P 1'
_cell_length_a   9.91700107
_cell_length_b   5.54291259
_cell_length_c   13.75758487
_cell_angle_alpha   74.77642660
_cell_angle_beta   90.00000000
_cell_angle_gamma   90.00000000
_symmetry_Int_Tables_number   1
_chemical_formula_structural   H2HeLiBe7
_chemical_formula_sum   'H8 He4 Li4 Be28'
_cell_volume   729.70402364
_cell_formula_units_Z   4
loop_
 _symmetry_equiv_pos_site_id
 _symmetry_equiv_pos_as_xyz
  1  'x, y, z'
loop_
 _atom_site_type_symbol
 _atom_site_label
 _atom_site_symmetry_multiplicity
 _atom_site_fract_x
 _atom_site_fract_y
 _atom_site_fract_z
 _atom_site_occupancy
  H  H0  1  0.17024073  0.22979109  0.98829331  1
  H  H1  1  0.67024073  0.77020891  0.51170669  1
  H  H2  1  0.82975927  0.77020891  0.01170669  1
  H  H3  1  0.32975927  0.22979109  0.48829331  1
  H  H4  1  0.10223334  0.58650393  0.33884787  1
  H  H5  1  0.60223334  0.41349607  0.16115213  1
  H  H6  1  0.89776666  0.41349607  0.66115213  1
  H  H7  1  0.39776666  0.58650393  0.83884787  1
  He  He8  1  0.08818298  0.84777761  0.76967378  1
  He  He9  1  0.58818298  0.15222239  0.73032622  1
  He  He10  1  0.91181702  0.15222239  0.23032622  1
  He  He11  1  0.41181702  0.84777761  0.26967378  1
  Li  Li12  1  0.16769353  0.64323505  0.10010884  1
  Li  Li13  1  0.66769353  0.35676495  0.39989116  1
  Li  Li14  1  0.83230647  0.35676495  0.89989116  1
  Li  Li15  1  0.33230647  0.64323505  0.60010884  1
  Be  Be16  1  0.05462437  0.52683875  0.64936322  1
  Be  Be17  1  0.55462437  0.47316125  0.85063678  1
  Be  Be18  1  0.94537563  0.47316125  0.35063678  1
  Be  Be19  1  0.44537563  0.52683875  0.14936322  1
  Be  Be20  1  0.06494556  0.22305047  0.89219401  1
  Be  Be21  1  0.56494556  0.77694953  0.60780599  1
  Be  Be22  1  0.93505444  0.77694953  0.10780599  1
  Be  Be23  1  0.43505444  0.22305047  0.39219401  1
  Be  Be24  1  0.25118588  0.95465157  0.04872671  1
  Be  Be25  1  0.75118588  0.04534843  0.45127329  1
  Be  Be26  1  0.74881412  0.04534843  0.95127329  1
  Be  Be27  1  0.24881412  0.95465157  0.54872671  1
  Be  Be28  1  0.20352895  0.46221133  0.45256527  1
  Be  Be29  1  0.70352895  0.53778867  0.04743473  1
  Be  Be30  1  0.79647105  0.53778867  0.54743473  1
  Be  Be31  1  0.29647105  0.46221133  0.95256527  1
  Be  Be32  1  0.19838954  0.50551719  0.24752895  1
  Be  Be33  1  0.69838954  0.49448281  0.25247105  1
  Be  Be34  1  0.80161046  0.49448281  0.75247105  1
  Be  Be35  1  0.30161046  0.50551719  0.74752895  1
  Be  Be36  1  0.09407566  0.33657122  0.08225347  1
  Be  Be37  1  0.59407566  0.66342878  0.41774653  1
  Be  Be38  1  0.90592434  0.66342878  0.91774653  1
  Be  Be39  1  0.40592434  0.33657122  0.58225347  1
  Be  Be40  1  0.12166636  -0.10052260  0.32014375  1
  Be  Be41  1  0.62166636  0.10052260  0.17985625  1
  Be  Be42  1  0.87833364  0.10052260  0.67985625  1
  Be  Be43  1  0.37833364  -0.10052260  0.82014375  1
