# generated using pymatgen
data_HHe
_symmetry_space_group_name_H-M   'P 1'
_cell_length_a   3.07914807
_cell_length_b   5.55921085
_cell_length_c   6.41660546
_cell_angle_alpha   90.00000000
_cell_angle_beta   90.00000000
_cell_angle_gamma   90.00000000
_symmetry_Int_Tables_number   1
_chemical_formula_structural   HHe
_chemical_formula_sum   'H4 He4'
_cell_volume   109.83709977
_cell_formula_units_Z   4
loop_
 _symmetry_equiv_pos_site_id
 _symmetry_equiv_pos_as_xyz
  1  'x, y, z'
loop_
 _atom_site_type_symbol
 _atom_site_label
 _atom_site_symmetry_multiplicity
 _atom_site_fract_x
 _atom_site_fract_y
 _atom_site_fract_z
 _atom_site_occupancy
  H  H0  1  0.25000000  0.00214473  0.79699838  1
  H  H1  1  0.75000000  0.49785527  0.29699838  1
  H  H2  1  0.75000000  0.99785527  0.20300162  1
  H  H3  1  0.25000000  0.50214473  0.70300162  1
  He  He4  1  0.25000000  0.18460493  0.44408212  1
  He  He5  1  0.75000000  0.31539507  0.94408212  1
  He  He6  1  0.75000000  0.81539507  0.55591788  1
  He  He7  1  0.25000000  0.68460493  0.05591788  1
