# generated using pymatgen
data_H2He3
_symmetry_space_group_name_H-M   'P 1'
_cell_length_a   5.17893137
_cell_length_b   5.17893137
_cell_length_c   5.17893137
_cell_angle_alpha   55.34241414
_cell_angle_beta   55.34241414
_cell_angle_gamma   55.34241414
_symmetry_Int_Tables_number   1
_chemical_formula_structural   H2He3
_chemical_formula_sum   'H4 He6'
_cell_volume   87.59238034
_cell_formula_units_Z   2
loop_
 _symmetry_equiv_pos_site_id
 _symmetry_equiv_pos_as_xyz
  1  'x, y, z'
loop_
 _atom_site_type_symbol
 _atom_site_label
 _atom_site_symmetry_multiplicity
 _atom_site_fract_x
 _atom_site_fract_y
 _atom_site_fract_z
 _atom_site_occupancy
  H  H0  1  0.64773087  0.64773087  0.64773087  1
  H  H1  1  0.85226913  0.85226913  0.85226913  1
  H  H2  1  0.35226913  0.35226913  0.35226913  1
  H  H3  1  0.14773087  0.14773087  0.14773087  1
  He  He4  1  0.75000000  0.05609619  0.44390381  1
  He  He5  1  0.05609619  0.44390381  0.75000000  1
  He  He6  1  0.44390381  0.75000000  0.05609619  1
  He  He7  1  0.25000000  0.94390381  0.55609619  1
  He  He8  1  0.94390381  0.55609619  0.25000000  1
  He  He9  1  0.55609619  0.25000000  0.94390381  1
