# generated using pymatgen
data_HHe2
_symmetry_space_group_name_H-M   'P 1'
_cell_length_a   3.20180254
_cell_length_b   3.20224599
_cell_length_c   13.89864801
_cell_angle_alpha   90.00000000
_cell_angle_beta   90.00000000
_cell_angle_gamma   119.99541910
_symmetry_Int_Tables_number   1
_chemical_formula_structural   HHe2
_chemical_formula_sum   'H2 He4'
_cell_volume   123.41628477
_cell_formula_units_Z   2
loop_
 _symmetry_equiv_pos_site_id
 _symmetry_equiv_pos_as_xyz
  1  'x, y, z'
loop_
 _atom_site_type_symbol
 _atom_site_label
 _atom_site_symmetry_multiplicity
 _atom_site_fract_x
 _atom_site_fract_y
 _atom_site_fract_z
 _atom_site_occupancy
  H  H0  1  0.66667269  0.33334537  0.25000000  1
  H  H1  1  0.33332731  0.66665463  0.75000000  1
  He  He2  1  0.66667712  0.33335424  0.63731291  1
  He  He3  1  0.33332288  0.66664576  0.13731291  1
  He  He4  1  0.33332288  0.66664576  0.36268709  1
  He  He5  1  0.66667712  0.33335424  0.86268709  1
