# generated using pymatgen
data_H2HeLi
_symmetry_space_group_name_H-M   'P 1'
_cell_length_a   4.48567110
_cell_length_b   7.26016097
_cell_length_c   9.13619199
_cell_angle_alpha   68.12729389
_cell_angle_beta   80.29731612
_cell_angle_gamma   81.84572059
_symmetry_Int_Tables_number   1
_chemical_formula_structural   H2HeLi
_chemical_formula_sum   'H4 He2 Li2'
_cell_volume   271.14919071
_cell_formula_units_Z   2
loop_
 _symmetry_equiv_pos_site_id
 _symmetry_equiv_pos_as_xyz
  1  'x, y, z'
loop_
 _atom_site_type_symbol
 _atom_site_label
 _atom_site_symmetry_multiplicity
 _atom_site_fract_x
 _atom_site_fract_y
 _atom_site_fract_z
 _atom_site_occupancy
  H  H0  1  0.35841893  0.03446201  0.80744137  1
  H  H1  1  0.64158107  0.96553799  0.19255863  1
  H  H2  1  0.80007102  0.29353862  0.43083174  1
  H  H3  1  0.19992898  0.70646138  0.56916826  1
  He  He4  1  0.26173123  0.25026116  0.00432600  1
  He  He5  1  0.73826877  0.74973884  0.99567400  1
  Li  Li6  1  0.15883607  0.50374940  0.15275844  1
  Li  Li7  1  0.84116393  0.49625060  0.84724156  1
