# generated using pymatgen
data_H2HeLi4Be
_symmetry_space_group_name_H-M   'P 1'
_cell_length_a   6.22769624
_cell_length_b   6.47596877
_cell_length_c   7.60071902
_cell_angle_alpha   90.00000000
_cell_angle_beta   90.00000000
_cell_angle_gamma   90.00000000
_symmetry_Int_Tables_number   1
_chemical_formula_structural   H2HeLi4Be
_chemical_formula_sum   'H4 He2 Li8 Be2'
_cell_volume   306.53978261
_cell_formula_units_Z   2
loop_
 _symmetry_equiv_pos_site_id
 _symmetry_equiv_pos_as_xyz
  1  'x, y, z'
loop_
 _atom_site_type_symbol
 _atom_site_label
 _atom_site_symmetry_multiplicity
 _atom_site_fract_x
 _atom_site_fract_y
 _atom_site_fract_z
 _atom_site_occupancy
  H  H0  1  0.99006507  0.67602263  0.24851687  1
  H  H1  1  0.49006507  0.32397737  0.25148313  1
  H  H2  1  0.49006507  0.32397737  0.74851687  1
  H  H3  1  0.99006507  0.67602263  0.75148313  1
  He  He4  1  0.49973214  0.84556579  0.00000000  1
  He  He5  1  0.99973214  0.15443421  0.50000000  1
  Li  Li6  1  0.65319931  0.19437785  0.00000000  1
  Li  Li7  1  0.15319931  0.80562215  0.50000000  1
  Li  Li8  1  0.10159159  0.86043902  0.00000000  1
  Li  Li9  1  0.60159159  0.13956098  0.50000000  1
  Li  Li10  1  0.61934568  0.66358455  0.27183373  1
  Li  Li11  1  0.11934568  0.33641545  0.22816627  1
  Li  Li12  1  0.11934568  0.33641545  0.77183373  1
  Li  Li13  1  0.61934568  0.66358455  0.72816627  1
  Be  Be14  1  0.99865546  0.17724377  0.00000000  1
  Be  Be15  1  0.49865546  0.82275623  0.50000000  1
