# generated using pymatgen
data_H2HeLi
_symmetry_space_group_name_H-M   'P 1'
_cell_length_a   3.96598354
_cell_length_b   7.83874086
_cell_length_c   10.71653631
_cell_angle_alpha   90.00000000
_cell_angle_beta   90.00000000
_cell_angle_gamma   90.00000000
_symmetry_Int_Tables_number   1
_chemical_formula_structural   H2HeLi
_chemical_formula_sum   'H8 He4 Li4'
_cell_volume   333.15907987
_cell_formula_units_Z   4
loop_
 _symmetry_equiv_pos_site_id
 _symmetry_equiv_pos_as_xyz
  1  'x, y, z'
loop_
 _atom_site_type_symbol
 _atom_site_label
 _atom_site_symmetry_multiplicity
 _atom_site_fract_x
 _atom_site_fract_y
 _atom_site_fract_z
 _atom_site_occupancy
  H  H0  1  0.25000000  0.22291828  0.56560383  1
  H  H1  1  0.75000000  0.27708172  0.06560383  1
  H  H2  1  0.75000000  0.77708172  0.43439617  1
  H  H3  1  0.25000000  0.72291828  0.93439617  1
  H  H4  1  0.25000000  0.65533070  0.31578179  1
  H  H5  1  0.75000000  0.84466930  0.81578179  1
  H  H6  1  0.75000000  0.34466930  0.68421821  1
  H  H7  1  0.25000000  0.15533070  0.18421821  1
  He  He8  1  0.25000000  0.98947627  0.39025931  1
  He  He9  1  0.75000000  0.51052373  0.89025931  1
  He  He10  1  0.75000000  0.01052373  0.60974069  1
  He  He11  1  0.25000000  0.48947627  0.10974069  1
  Li  Li12  1  0.25000000  0.13961893  0.86512054  1
  Li  Li13  1  0.75000000  0.36038107  0.36512054  1
  Li  Li14  1  0.75000000  0.86038107  0.13487946  1
  Li  Li15  1  0.25000000  0.63961893  0.63487946  1
