# generated using pymatgen
data_HHeLi
_symmetry_space_group_name_H-M   'P 1'
_cell_length_a   7.81139573
_cell_length_b   7.81139573
_cell_length_c   4.04503071
_cell_angle_alpha   90.00000000
_cell_angle_beta   90.00000000
_cell_angle_gamma   120.00034284
_symmetry_Int_Tables_number   1
_chemical_formula_structural   HHeLi
_chemical_formula_sum   'H3 He3 Li3'
_cell_volume   213.75103907
_cell_formula_units_Z   3
loop_
 _symmetry_equiv_pos_site_id
 _symmetry_equiv_pos_as_xyz
  1  'x, y, z'
loop_
 _atom_site_type_symbol
 _atom_site_label
 _atom_site_symmetry_multiplicity
 _atom_site_fract_x
 _atom_site_fract_y
 _atom_site_fract_z
 _atom_site_occupancy
  H  H0  1  0.00000008  0.00000008  0.50000000  1
  H  H1  1  0.33333437  0.66666530  0.00000000  1
  H  H2  1  0.66666530  0.33333437  0.00000000  1
  He  He3  1  0.59341207  0.00000275  0.50000000  1
  He  He4  1  0.00000275  0.59341207  0.50000000  1
  He  He5  1  0.40659022  0.40659022  0.50000000  1
  Li  Li6  1  0.25765851  -0.00000351  0.00000000  1
  Li  Li7  1  -0.00000351  0.25765851  0.00000000  1
  Li  Li8  1  0.74234022  0.74234022  0.00000000  1
