# generated using pymatgen
data_H2
_symmetry_space_group_name_H-M   'P 1'
_cell_length_a   5.61181671
_cell_length_b   5.61181671
_cell_length_c   5.61181671
_cell_angle_alpha   138.50127041
_cell_angle_beta   97.22164542
_cell_angle_gamma   97.19932570
_symmetry_Int_Tables_number   1
_chemical_formula_structural   H2
_chemical_formula_sum   H2
_cell_volume   109.50661228
_cell_formula_units_Z   1
loop_
 _symmetry_equiv_pos_site_id
 _symmetry_equiv_pos_as_xyz
  1  'x, y, z'
loop_
 _atom_site_type_symbol
 _atom_site_label
 _atom_site_symmetry_multiplicity
 _atom_site_fract_x
 _atom_site_fract_y
 _atom_site_fract_z
 _atom_site_occupancy
  H  H0  1  0.25000000  0.12494676  0.87494676  1
  H  H1  1  0.75000000  0.87505324  0.12505324  1
