# generated using pymatgen
data_HHeLiBe4
_symmetry_space_group_name_H-M   'P 1'
_cell_length_a   7.11277381
_cell_length_b   10.39219872
_cell_length_c   12.55072807
_cell_angle_alpha   90.00000000
_cell_angle_beta   90.00000000
_cell_angle_gamma   90.00000000
_symmetry_Int_Tables_number   1
_chemical_formula_structural   HHeLiBe4
_chemical_formula_sum   'H4 He4 Li4 Be16'
_cell_volume   927.71667127
_cell_formula_units_Z   4
loop_
 _symmetry_equiv_pos_site_id
 _symmetry_equiv_pos_as_xyz
  1  'x, y, z'
loop_
 _atom_site_type_symbol
 _atom_site_label
 _atom_site_symmetry_multiplicity
 _atom_site_fract_x
 _atom_site_fract_y
 _atom_site_fract_z
 _atom_site_occupancy
  H  H0  1  0.75000000  0.11585990  0.14312853  1
  H  H1  1  0.25000000  0.61585990  0.35687147  1
  H  H2  1  0.25000000  0.88414010  0.85687147  1
  H  H3  1  0.75000000  0.38414010  0.64312853  1
  He  He4  1  0.75000000  0.66692180  0.13059396  1
  He  He5  1  0.25000000  0.16692180  0.36940604  1
  He  He6  1  0.25000000  0.33307820  0.86940604  1
  He  He7  1  0.75000000  0.83307820  0.63059396  1
  Li  Li8  1  0.75000000  0.10516975  0.82255900  1
  Li  Li9  1  0.25000000  0.60516975  0.67744100  1
  Li  Li10  1  0.25000000  0.89483025  0.17744100  1
  Li  Li11  1  0.75000000  0.39483025  0.32255900  1
  Be  Be12  1  0.75000000  0.21512824  0.41863025  1
  Be  Be13  1  0.25000000  0.71512824  0.08136975  1
  Be  Be14  1  0.25000000  0.78487176  0.58136975  1
  Be  Be15  1  0.75000000  0.28487176  0.91863025  1
  Be  Be16  1  0.99804332  0.89236820  0.28193115  1
  Be  Be17  1  0.00195668  0.39236820  0.21806885  1
  Be  Be18  1  0.49804332  0.10763180  0.71806885  1
  Be  Be19  1  0.50195668  0.60763180  0.78193115  1
  Be  Be20  1  0.00195668  0.10763180  0.71806885  1
  Be  Be21  1  0.99804332  0.60763180  0.78193115  1
  Be  Be22  1  0.50195668  0.89236820  0.28193115  1
  Be  Be23  1  0.49804332  0.39236820  0.21806885  1
  Be  Be24  1  0.75000000  0.92541352  0.92016285  1
  Be  Be25  1  0.25000000  0.42541352  0.57983715  1
  Be  Be26  1  0.25000000  0.07458648  0.07983715  1
  Be  Be27  1  0.75000000  0.57458648  0.42016285  1
