# generated using pymatgen
data_H2He4Li
_symmetry_space_group_name_H-M   'P 1'
_cell_length_a   8.51543214
_cell_length_b   7.30538997
_cell_length_c   6.15239767
_cell_angle_alpha   77.98782922
_cell_angle_beta   57.04678381
_cell_angle_gamma   44.96538698
_symmetry_Int_Tables_number   1
_chemical_formula_structural   H2He4Li
_chemical_formula_sum   'H4 He8 Li2'
_cell_volume   216.63845611
_cell_formula_units_Z   2
loop_
 _symmetry_equiv_pos_site_id
 _symmetry_equiv_pos_as_xyz
  1  'x, y, z'
loop_
 _atom_site_type_symbol
 _atom_site_label
 _atom_site_symmetry_multiplicity
 _atom_site_fract_x
 _atom_site_fract_y
 _atom_site_fract_z
 _atom_site_occupancy
  H  H0  1  0.44217389  0.30782611  0.44217389  1
  H  H1  1  0.80782611  0.94217389  0.80782611  1
  H  H2  1  0.55782611  0.69217389  0.55782611  1
  H  H3  1  0.19217389  0.05782611  0.19217389  1
  He  He4  1  0.25770981  0.63611678  0.80282230  1
  He  He5  1  0.13611678  0.75770981  0.30335111  1
  He  He6  1  0.80282230  0.80335111  0.25770981  1
  He  He7  1  0.30335111  0.30282230  0.13611678  1
  He  He8  1  0.74229019  0.36388322  0.19717770  1
  He  He9  1  0.86388322  0.24229019  0.69664889  1
  He  He10  1  0.19717770  0.19664889  0.74229019  1
  He  He11  1  0.69664889  0.69717770  0.86388322  1
  Li  Li12  1  0.12500000  0.62500000  0.12500000  1
  Li  Li13  1  0.87500000  0.37500000  0.87500000  1
