# generated using pymatgen
data_H6He5Li2
_symmetry_space_group_name_H-M   'P 1'
_cell_length_a   8.29906129
_cell_length_b   8.29906129
_cell_length_c   8.29906129
_cell_angle_alpha   90.00000000
_cell_angle_beta   90.00000000
_cell_angle_gamma   90.00000000
_symmetry_Int_Tables_number   1
_chemical_formula_structural   H6He5Li2
_chemical_formula_sum   'H18 He15 Li6'
_cell_volume   571.59301901
_cell_formula_units_Z   3
loop_
 _symmetry_equiv_pos_site_id
 _symmetry_equiv_pos_as_xyz
  1  'x, y, z'
loop_
 _atom_site_type_symbol
 _atom_site_label
 _atom_site_symmetry_multiplicity
 _atom_site_fract_x
 _atom_site_fract_y
 _atom_site_fract_z
 _atom_site_occupancy
  H  H0  1  0.27502304  0.50000000  0.50000000  1
  H  H1  1  0.72497696  0.50000000  0.50000000  1
  H  H2  1  0.50000000  0.27502304  0.50000000  1
  H  H3  1  0.50000000  0.72497696  0.50000000  1
  H  H4  1  0.50000000  0.50000000  0.27502304  1
  H  H5  1  0.50000000  0.50000000  0.72497696  1
  H  H6  1  0.00000000  0.16351506  0.25741263  1
  H  H7  1  -0.00000000  0.83648494  0.25741263  1
  H  H8  1  0.00000000  0.16351506  0.74258737  1
  H  H9  1  -0.00000000  0.83648494  0.74258737  1
  H  H10  1  0.25741263  -0.00000000  0.16351506  1
  H  H11  1  0.25741263  0.00000000  0.83648494  1
  H  H12  1  0.74258737  -0.00000000  0.16351506  1
  H  H13  1  0.74258737  0.00000000  0.83648494  1
  H  H14  1  0.16351506  0.25741263  -0.00000000  1
  H  H15  1  0.83648494  0.25741263  0.00000000  1
  H  H16  1  0.16351506  0.74258737  -0.00000000  1
  H  H17  1  0.83648494  0.74258737  0.00000000  1
  He  He18  1  0.00000000  0.00000000  0.00000000  1
  He  He19  1  0.33666336  0.50000000  0.00000000  1
  He  He20  1  0.66333664  0.50000000  -0.00000000  1
  He  He21  1  -0.00000000  0.33666336  0.50000000  1
  He  He22  1  0.00000000  0.66333664  0.50000000  1
  He  He23  1  0.50000000  0.00000000  0.33666336  1
  He  He24  1  0.50000000  -0.00000000  0.66333664  1
  He  He25  1  0.28248996  0.28248996  0.28248996  1
  He  He26  1  0.71751004  0.71751004  0.28248996  1
  He  He27  1  0.71751004  0.28248996  0.71751004  1
  He  He28  1  0.28248996  0.71751004  0.71751004  1
  He  He29  1  0.71751004  0.71751004  0.71751004  1
  He  He30  1  0.28248996  0.28248996  0.71751004  1
  He  He31  1  0.28248996  0.71751004  0.28248996  1
  He  He32  1  0.71751004  0.28248996  0.28248996  1
  Li  Li33  1  0.18159076  0.00000000  0.50000000  1
  Li  Li34  1  0.81840924  -0.00000000  0.50000000  1
  Li  Li35  1  0.50000000  0.18159076  -0.00000000  1
  Li  Li36  1  0.50000000  0.81840924  0.00000000  1
  Li  Li37  1  -0.00000000  0.50000000  0.18159076  1
  Li  Li38  1  0.00000000  0.50000000  0.81840924  1
