# generated using pymatgen
data_H4He2LiBe2B3
_symmetry_space_group_name_H-M   'P 1'
_cell_length_a   5.51156150
_cell_length_b   5.85742769
_cell_length_c   19.68057031
_cell_angle_alpha   90.00000000
_cell_angle_beta   90.00000000
_cell_angle_gamma   90.00000000
_symmetry_Int_Tables_number   1
_chemical_formula_structural   H4He2LiBe2B3
_chemical_formula_sum   'H16 He8 Li4 Be8 B12'
_cell_volume   635.35912806
_cell_formula_units_Z   4
loop_
 _symmetry_equiv_pos_site_id
 _symmetry_equiv_pos_as_xyz
  1  'x, y, z'
loop_
 _atom_site_type_symbol
 _atom_site_label
 _atom_site_symmetry_multiplicity
 _atom_site_fract_x
 _atom_site_fract_y
 _atom_site_fract_z
 _atom_site_occupancy
  H  H0  1  0.14339291  0.70676657  0.24286763  1
  H  H1  1  0.35660709  0.29323343  0.74286763  1
  H  H2  1  0.85660709  0.20676657  0.25713237  1
  H  H3  1  0.64339291  0.79323343  0.75713237  1
  H  H4  1  0.09763083  0.45606629  0.12861456  1
  H  H5  1  0.40236917  0.54393371  0.62861456  1
  H  H6  1  0.90236917  0.95606629  0.37138544  1
  H  H7  1  0.59763083  0.04393371  0.87138544  1
  H  H8  1  0.52469381  0.57556112  0.17561563  1
  H  H9  1  0.97530619  0.42443888  0.67561563  1
  H  H10  1  0.47530619  0.07556112  0.32438437  1
  H  H11  1  0.02469381  0.92443888  0.82438437  1
  H  H12  1  0.42271126  0.02033485  0.17577446  1
  H  H13  1  0.07728874  0.97966515  0.67577446  1
  H  H14  1  0.57728874  0.52033485  0.32422554  1
  H  H15  1  0.92271126  0.47966515  0.82422554  1
  He  He16  1  0.69325241  0.48566677  0.00411397  1
  He  He17  1  0.80674759  0.51433323  0.50411397  1
  He  He18  1  0.30674759  0.98566677  0.49588603  1
  He  He19  1  0.19325241  0.01433323  0.99588603  1
  He  He20  1  0.50717287  0.28396622  0.00539962  1
  He  He21  1  0.99282713  0.71603378  0.50539962  1
  He  He22  1  0.49282713  0.78396622  0.49460038  1
  He  He23  1  0.00717287  0.21603378  0.99460038  1
  Li  Li24  1  0.23276004  0.76277650  0.13660963  1
  Li  Li25  1  0.26723996  0.23722350  0.63660963  1
  Li  Li26  1  0.76723996  0.26277650  0.36339037  1
  Li  Li27  1  0.73276004  0.73722350  0.86339037  1
  Be  Be28  1  0.73864997  0.26412804  0.13778517  1
  Be  Be29  1  0.76135003  0.73587196  0.63778517  1
  Be  Be30  1  0.26135003  0.76412804  0.36221483  1
  Be  Be31  1  0.23864997  0.23587196  0.86221483  1
  Be  Be32  1  0.26077001  0.32006068  0.25105189  1
  Be  Be33  1  0.23922999  0.67993932  0.75105189  1
  Be  Be34  1  0.73922999  0.82006068  0.24894811  1
  Be  Be35  1  0.76077001  0.17993932  0.74894811  1
  B  B36  1  0.34891032  0.78691958  0.05550151  1
  B  B37  1  0.15108968  0.21308042  0.55550151  1
  B  B38  1  0.65108968  0.28691958  0.44449849  1
  B  B39  1  0.84891032  0.71308042  0.94449849  1
  B  B40  1  0.96211481  0.91414857  0.13146580  1
  B  B41  1  0.53788519  0.08585143  0.63146580  1
  B  B42  1  0.03788519  0.41414857  0.36853420  1
  B  B43  1  0.46211481  0.58585143  0.86853420  1
  B  B44  1  0.66930668  0.32994865  0.02143496  1
  B  B45  1  0.83069332  0.67005135  0.52143496  1
  B  B46  1  0.33069332  0.82994865  0.47856504  1
  B  B47  1  0.16930668  0.17005135  0.97856504  1
