# generated using pymatgen
data_H4He4Li13
_symmetry_space_group_name_H-M   'P 1'
_cell_length_a   8.32979156
_cell_length_b   8.32979156
_cell_length_c   3.85216840
_cell_angle_alpha   90.00000000
_cell_angle_beta   90.00000000
_cell_angle_gamma   91.49535802
_symmetry_Int_Tables_number   1
_chemical_formula_structural   H4He4Li13
_chemical_formula_sum   'H4 He4 Li13'
_cell_volume   267.19332558
_cell_formula_units_Z   1
loop_
 _symmetry_equiv_pos_site_id
 _symmetry_equiv_pos_as_xyz
  1  'x, y, z'
loop_
 _atom_site_type_symbol
 _atom_site_label
 _atom_site_symmetry_multiplicity
 _atom_site_fract_x
 _atom_site_fract_y
 _atom_site_fract_z
 _atom_site_occupancy
  H  H0  1  0.55676066  0.44323934  -0.00000000  1
  H  H1  1  0.44323934  0.55676066  0.00000000  1
  H  H2  1  0.50000000  -0.00000000  0.00000000  1
  H  H3  1  0.00000000  0.50000000  0.00000000  1
  He  He4  1  0.19030307  0.80969693  0.50000000  1
  He  He5  1  0.80969693  0.19030307  0.50000000  1
  He  He6  1  0.34602380  0.34602380  0.50000000  1
  He  He7  1  0.65397620  0.65397620  0.50000000  1
  Li  Li8  1  0.50000000  -0.00000000  0.50000000  1
  Li  Li9  1  0.00000000  0.50000000  0.50000000  1
  Li  Li10  1  0.00000000  -0.00000000  0.00000000  1
  Li  Li11  1  0.56903442  0.21646800  0.00000000  1
  Li  Li12  1  0.43096558  0.78353200  -0.00000000  1
  Li  Li13  1  0.21646800  0.56903442  -0.00000000  1
  Li  Li14  1  0.78353200  0.43096558  0.00000000  1
  Li  Li15  1  0.29030995  0.07423523  0.00000000  1
  Li  Li16  1  0.70969005  0.92576477  -0.00000000  1
  Li  Li17  1  0.07423523  0.29030995  0.00000000  1
  Li  Li18  1  0.92576477  0.70969005  -0.00000000  1
  Li  Li19  1  0.12031985  0.12031985  0.50000000  1
  Li  Li20  1  0.87968015  0.87968015  0.50000000  1
