# generated using pymatgen
data_HHe2Li4Be
_symmetry_space_group_name_H-M   'P 1'
_cell_length_a   6.46442623
_cell_length_b   4.94255190
_cell_length_c   8.00664238
_cell_angle_alpha   71.95057814
_cell_angle_beta   90.00000000
_cell_angle_gamma   90.00000000
_symmetry_Int_Tables_number   1
_chemical_formula_structural   HHe2Li4Be
_chemical_formula_sum   'H2 He4 Li8 Be2'
_cell_volume   243.22940736
_cell_formula_units_Z   2
loop_
 _symmetry_equiv_pos_site_id
 _symmetry_equiv_pos_as_xyz
  1  'x, y, z'
loop_
 _atom_site_type_symbol
 _atom_site_label
 _atom_site_symmetry_multiplicity
 _atom_site_fract_x
 _atom_site_fract_y
 _atom_site_fract_z
 _atom_site_occupancy
  H  H0  1  0.75000000  0.96338033  0.26499866  1
  H  H1  1  0.25000000  0.03661967  0.73500134  1
  He  He2  1  0.25000000  0.82437752  0.35074910  1
  He  He3  1  0.75000000  0.17562248  0.64925090  1
  He  He4  1  0.50000000  0.50000000  0.00000000  1
  He  He5  1  0.00000000  0.50000000  0.00000000  1
  Li  Li6  1  0.25000000  0.60767644  0.38749345  1
  Li  Li7  1  0.75000000  0.39232356  0.61250655  1
  Li  Li8  1  0.25000000  0.14776143  0.32212659  1
  Li  Li9  1  0.75000000  0.85223857  0.67787341  1
  Li  Li10  1  0.44812152  0.57842822  0.12228813  1
  Li  Li11  1  0.94812152  0.42157178  0.87771187  1
  Li  Li12  1  0.55187848  0.42157178  0.87771187  1
  Li  Li13  1  0.05187848  0.57842822  0.12228813  1
  Be  Be14  1  0.25000000  0.46667972  0.23345192  1
  Be  Be15  1  0.75000000  0.53332028  0.76654808  1
