# generated using pymatgen
data_HHe12(LiBe)2
_symmetry_space_group_name_H-M   'P 1'
_cell_length_a   5.73917653
_cell_length_b   7.57467762
_cell_length_c   8.37264618
_cell_angle_alpha   91.74118267
_cell_angle_beta   91.72497718
_cell_angle_gamma   98.27374622
_symmetry_Int_Tables_number   1
_chemical_formula_structural   HHe12(LiBe)2
_chemical_formula_sum   'H1 He12 Li2 Be2'
_cell_volume   359.80572597
_cell_formula_units_Z   1
loop_
 _symmetry_equiv_pos_site_id
 _symmetry_equiv_pos_as_xyz
  1  'x, y, z'
loop_
 _atom_site_type_symbol
 _atom_site_label
 _atom_site_symmetry_multiplicity
 _atom_site_fract_x
 _atom_site_fract_y
 _atom_site_fract_z
 _atom_site_occupancy
  H  H0  1  -0.00000000  -0.00000000  -0.00000000  1
  He  He1  1  0.33988979  0.15396661  0.05891747  1
  He  He2  1  0.66011021  0.84603339  0.94108253  1
  He  He3  1  0.69561217  0.38510619  0.43815197  1
  He  He4  1  0.30438783  0.61489381  0.56184803  1
  He  He5  1  0.78821603  0.29550618  0.12407569  1
  He  He6  1  0.21178397  0.70449382  0.87592431  1
  He  He7  1  0.44344431  0.49482407  0.18288253  1
  He  He8  1  0.55655569  0.50517593  0.81711747  1
  He  He9  1  0.22686081  0.22975650  0.36226443  1
  He  He10  1  0.77313919  0.77024350  0.63773557  1
  He  He11  1  0.58388275  0.04204076  0.30829200  1
  He  He12  1  0.41611725  0.95795924  0.69170800  1
  Li  Li13  1  0.51844895  0.27429075  0.25704523  1
  Li  Li14  1  0.48155105  0.72570925  0.74295477  1
  Be  Be15  1  0.02190039  0.77802976  0.25928136  1
  Be  Be16  1  0.97809961  0.22197024  0.74071864  1
