# generated using pymatgen
data_HHe
_symmetry_space_group_name_H-M   'P 1'
_cell_length_a   3.81820806
_cell_length_b   4.61854871
_cell_length_c   12.48273757
_cell_angle_alpha   90.00000000
_cell_angle_beta   90.00000000
_cell_angle_gamma   90.00000000
_symmetry_Int_Tables_number   1
_chemical_formula_structural   HHe
_chemical_formula_sum   'H4 He4'
_cell_volume   220.12783296
_cell_formula_units_Z   4
loop_
 _symmetry_equiv_pos_site_id
 _symmetry_equiv_pos_as_xyz
  1  'x, y, z'
loop_
 _atom_site_type_symbol
 _atom_site_label
 _atom_site_symmetry_multiplicity
 _atom_site_fract_x
 _atom_site_fract_y
 _atom_site_fract_z
 _atom_site_occupancy
  H  H0  1  0.25000000  0.20623591  0.04724949  1
  H  H1  1  0.75000000  0.29376409  0.54724949  1
  H  H2  1  0.75000000  0.79376409  0.95275051  1
  H  H3  1  0.25000000  0.70623591  0.45275051  1
  He  He4  1  0.25000000  0.48430859  0.87139348  1
  He  He5  1  0.75000000  0.01569141  0.37139348  1
  He  He6  1  0.75000000  0.51569141  0.12860652  1
  He  He7  1  0.25000000  0.98430859  0.62860652  1
