# generated using pymatgen
data_HHe3
_symmetry_space_group_name_H-M   'P 1'
_cell_length_a   5.35561292
_cell_length_b   5.35561292
_cell_length_c   17.79117178
_cell_angle_alpha   90.00000000
_cell_angle_beta   90.00000000
_cell_angle_gamma   119.99977009
_symmetry_Int_Tables_number   1
_chemical_formula_structural   HHe3
_chemical_formula_sum   'H6 He18'
_cell_volume   441.93108610
_cell_formula_units_Z   6
loop_
 _symmetry_equiv_pos_site_id
 _symmetry_equiv_pos_as_xyz
  1  'x, y, z'
loop_
 _atom_site_type_symbol
 _atom_site_label
 _atom_site_symmetry_multiplicity
 _atom_site_fract_x
 _atom_site_fract_y
 _atom_site_fract_z
 _atom_site_occupancy
  H  H0  1  0.33333209  0.66666791  0.54286351  1
  H  H1  1  0.66666791  0.33333209  0.04286351  1
  H  H2  1  0.66666791  0.33333209  0.45713649  1
  H  H3  1  0.33333209  0.66666791  0.95713649  1
  H  H4  1  0.33332986  0.66667014  0.75000000  1
  H  H5  1  0.66667014  0.33332986  0.25000000  1
  He  He6  1  0.16669723  0.33338682  0.12831063  1
  He  He7  1  0.66661318  0.83330277  0.12831063  1
  He  He8  1  0.16669907  0.83330093  0.12830775  1
  He  He9  1  0.83330277  0.66661318  0.62831063  1
  He  He10  1  0.33338682  0.16669723  0.62831063  1
  He  He11  1  0.83330093  0.16669907  0.62830775  1
  He  He12  1  0.33338682  0.16669723  0.87168937  1
  He  He13  1  0.83330277  0.66661318  0.87168937  1
  He  He14  1  0.83330093  0.16669907  0.87169225  1
  He  He15  1  0.66661318  0.83330277  0.37168937  1
  He  He16  1  0.16669723  0.33338682  0.37168937  1
  He  He17  1  0.16669907  0.83330093  0.37169225  1
  He  He18  1  0.33332969  0.66667031  0.25000000  1
  He  He19  1  0.66667031  0.33332969  0.75000000  1
  He  He20  1  0.00001054  0.99998946  0.25000000  1
  He  He21  1  0.99998946  0.00001054  0.75000000  1
  He  He22  1  0.00000000  0.00000000  0.00000000  1
  He  He23  1  0.00000000  0.00000000  0.50000000  1
