# generated using pymatgen
data_H6He6Li
_symmetry_space_group_name_H-M   'P 1'
_cell_length_a   5.41472493
_cell_length_b   5.40850976
_cell_length_c   7.97301434
_cell_angle_alpha   90.00000000
_cell_angle_beta   90.00000000
_cell_angle_gamma   120.03802075
_symmetry_Int_Tables_number   1
_chemical_formula_structural   H6He6Li
_chemical_formula_sum   'H6 He6 Li1'
_cell_volume   202.13460916
_cell_formula_units_Z   1
loop_
 _symmetry_equiv_pos_site_id
 _symmetry_equiv_pos_as_xyz
  1  'x, y, z'
loop_
 _atom_site_type_symbol
 _atom_site_label
 _atom_site_symmetry_multiplicity
 _atom_site_fract_x
 _atom_site_fract_y
 _atom_site_fract_z
 _atom_site_occupancy
  H  H0  1  0.00000000  0.50000000  0.25034057  1
  H  H1  1  0.50000000  0.50000000  0.25034057  1
  H  H2  1  0.50000000  0.00000000  0.25112882  1
  H  H3  1  0.50000000  0.50000000  0.74965943  1
  H  H4  1  0.00000000  0.50000000  0.74965943  1
  H  H5  1  0.50000000  0.00000000  0.74887118  1
  He  He6  1  0.66640825  0.33281651  0.00000000  1
  He  He7  1  0.33359175  0.66718349  0.00000000  1
  He  He8  1  0.66743726  0.33487453  0.50000000  1
  He  He9  1  0.33256274  0.66512547  0.50000000  1
  He  He10  1  -0.00000000  0.00000000  0.34485468  1
  He  He11  1  0.00000000  0.00000000  0.65514532  1
  Li  Li12  1  -0.00000000  0.00000000  0.00000000  1
