# generated using pymatgen
data_HHe2
_symmetry_space_group_name_H-M   'P 1'
_cell_length_a   4.09544891
_cell_length_b   4.09544891
_cell_length_c   5.16949180
_cell_angle_alpha   90.00233686
_cell_angle_beta   89.99766314
_cell_angle_gamma   120.00163495
_symmetry_Int_Tables_number   1
_chemical_formula_structural   HHe2
_chemical_formula_sum   'H1 He2'
_cell_volume   75.08865954
_cell_formula_units_Z   1
loop_
 _symmetry_equiv_pos_site_id
 _symmetry_equiv_pos_as_xyz
  1  'x, y, z'
loop_
 _atom_site_type_symbol
 _atom_site_label
 _atom_site_symmetry_multiplicity
 _atom_site_fract_x
 _atom_site_fract_y
 _atom_site_fract_z
 _atom_site_occupancy
  H  H0  1  -0.00000000  -0.00000000  -0.00000000  1
  He  He1  1  0.33330188  0.66669812  0.26727458  1
  He  He2  1  0.66669812  0.33330188  0.73272542  1
