# generated using pymatgen
data_HHe3
_symmetry_space_group_name_H-M   'P 1'
_cell_length_a   8.54419333
_cell_length_b   8.54419333
_cell_length_c   8.54321045
_cell_angle_alpha   33.42965527
_cell_angle_beta   33.42965527
_cell_angle_gamma   33.43973769
_symmetry_Int_Tables_number   1
_chemical_formula_structural   HHe3
_chemical_formula_sum   'H3 He9'
_cell_volume   168.60108924
_cell_formula_units_Z   3
loop_
 _symmetry_equiv_pos_site_id
 _symmetry_equiv_pos_as_xyz
  1  'x, y, z'
loop_
 _atom_site_type_symbol
 _atom_site_label
 _atom_site_symmetry_multiplicity
 _atom_site_fract_x
 _atom_site_fract_y
 _atom_site_fract_z
 _atom_site_occupancy
  H  H0  1  0.13828825  0.13828825  0.13817727  1
  H  H1  1  0.86190642  0.86190642  0.86198761  1
  H  H2  1  0.99990088  0.99990088  0.00011411  1
  He  He3  1  0.58308932  0.58308932  0.07948069  1
  He  He4  1  0.07940516  0.58313945  0.58318697  1
  He  He5  1  0.58313945  0.07940516  0.58318697  1
  He  He6  1  0.41697617  0.41697617  0.92042976  1
  He  He7  1  0.41693314  0.92038342  0.41702158  1
  He  He8  1  0.92038342  0.41693314  0.41702158  1
  He  He9  1  0.33319570  0.33319570  0.33366918  1
  He  He10  1  0.66673835  0.66673835  0.66671439  1
  He  He11  1  0.50004375  0.50004375  0.50000990  1
