# generated using pymatgen
data_H4He13Li29
_symmetry_space_group_name_H-M   'P 1'
_cell_length_a   14.82795372
_cell_length_b   14.82795372
_cell_length_c   8.66457431
_cell_angle_alpha   90.00000000
_cell_angle_beta   90.00000000
_cell_angle_gamma   120.00435452
_symmetry_Int_Tables_number   1
_chemical_formula_structural   H4He13Li29
_chemical_formula_sum   'H8 He26 Li58'
_cell_volume   1649.76181730
_cell_formula_units_Z   2
loop_
 _symmetry_equiv_pos_site_id
 _symmetry_equiv_pos_as_xyz
  1  'x, y, z'
loop_
 _atom_site_type_symbol
 _atom_site_label
 _atom_site_symmetry_multiplicity
 _atom_site_fract_x
 _atom_site_fract_y
 _atom_site_fract_z
 _atom_site_occupancy
  H  H0  1  0.45632590  0.91265834  0.25000000  1
  H  H1  1  0.08734166  0.54367410  0.25000000  1
  H  H2  1  0.45632935  0.54367065  0.25000000  1
  H  H3  1  0.54367410  0.08734166  0.75000000  1
  H  H4  1  0.91265834  0.45632590  0.75000000  1
  H  H5  1  0.54367065  0.45632935  0.75000000  1
  H  H6  1  0.00000000  -0.00000000  0.00000000  1
  H  H7  1  -0.00000000  0.00000000  0.50000000  1
  He  He8  1  0.12110622  0.24221549  0.56759099  1
  He  He9  1  0.75778451  0.87889378  0.56759099  1
  He  He10  1  0.12110529  0.87889471  0.56758719  1
  He  He11  1  0.87889378  0.75778451  0.06759099  1
  He  He12  1  0.24221549  0.12110622  0.06759099  1
  He  He13  1  0.87889471  0.12110529  0.06758719  1
  He  He14  1  0.24221549  0.12110622  0.43240901  1
  He  He15  1  0.87889378  0.75778451  0.43240901  1
  He  He16  1  0.87889471  0.12110529  0.43241281  1
  He  He17  1  0.75778451  0.87889378  0.93240901  1
  He  He18  1  0.12110622  0.24221549  0.93240901  1
  He  He19  1  0.12110529  0.87889471  0.93241281  1
  He  He20  1  0.23027286  0.46054433  0.04714194  1
  He  He21  1  0.53945567  0.76972714  0.04714194  1
  He  He22  1  0.23026673  0.76973327  0.04713260  1
  He  He23  1  0.76972714  0.53945567  0.54714194  1
  He  He24  1  0.46054433  0.23027286  0.54714194  1
  He  He25  1  0.76973327  0.23026673  0.54713260  1
  He  He26  1  0.46054433  0.23027286  0.95285806  1
  He  He27  1  0.76972714  0.53945567  0.95285806  1
  He  He28  1  0.76973327  0.23026673  0.95286740  1
  He  He29  1  0.53945567  0.76972714  0.45285806  1
  He  He30  1  0.23027286  0.46054433  0.45285806  1
  He  He31  1  0.23026673  0.76973327  0.45286740  1
  He  He32  1  0.33333537  0.66666463  0.75000000  1
  He  He33  1  0.66666463  0.33333537  0.25000000  1
  Li  Li34  1  0.56736305  0.13472695  0.09198534  1
  Li  Li35  1  0.86527305  0.43263695  0.09198534  1
  Li  Li36  1  0.56736478  0.43263522  0.09199085  1
  Li  Li37  1  0.43263695  0.86527305  0.59198534  1
  Li  Li38  1  0.13472695  0.56736305  0.59198534  1
  Li  Li39  1  0.43263522  0.56736478  0.59199085  1
  Li  Li40  1  0.13472695  0.56736305  0.90801466  1
  Li  Li41  1  0.43263695  0.86527305  0.90801466  1
  Li  Li42  1  0.43263522  0.56736478  0.90800915  1
  Li  Li43  1  0.86527305  0.43263695  0.40801466  1
  Li  Li44  1  0.56736305  0.13472695  0.40801466  1
  Li  Li45  1  0.56736478  0.43263522  0.40800915  1
  Li  Li46  1  0.06691007  0.31151191  0.25000000  1
  Li  Li47  1  0.68849635  0.75540274  0.25000000  1
  Li  Li48  1  0.24459772  0.93309155  0.25000000  1
  Li  Li49  1  0.93308993  0.68848809  0.75000000  1
  Li  Li50  1  0.31150365  0.24459726  0.75000000  1
  Li  Li51  1  0.75540228  0.06690845  0.75000000  1
  Li  Li52  1  0.31151191  0.06691007  0.75000000  1
  Li  Li53  1  0.75540274  0.68849635  0.75000000  1
  Li  Li54  1  0.93309155  0.24459772  0.75000000  1
  Li  Li55  1  0.68848809  0.93308993  0.25000000  1
  Li  Li56  1  0.24459726  0.31150365  0.25000000  1
  Li  Li57  1  0.06690845  0.75540228  0.25000000  1
  Li  Li58  1  0.40838453  0.11717857  0.25000000  1
  Li  Li59  1  0.88282731  0.29120704  0.25000000  1
  Li  Li60  1  0.70879940  0.59162303  0.25000000  1
  Li  Li61  1  0.59161547  0.88282143  0.75000000  1
  Li  Li62  1  0.11717269  0.70879296  0.75000000  1
  Li  Li63  1  0.29120060  0.40837697  0.75000000  1
  Li  Li64  1  0.11717857  0.40838453  0.75000000  1
  Li  Li65  1  0.29120704  0.88282731  0.75000000  1
  Li  Li66  1  0.59162303  0.70879940  0.75000000  1
  Li  Li67  1  0.88282143  0.59161547  0.25000000  1
  Li  Li68  1  0.70879296  0.11717269  0.25000000  1
  Li  Li69  1  0.40837697  0.29120060  0.25000000  1
  Li  Li70  1  0.36283523  0.00000361  0.00000052  1
  Li  Li71  1  0.00000361  0.36283523  0.99999948  1
  Li  Li72  1  0.63716627  0.63716627  0.00000000  1
  Li  Li73  1  0.63716477  0.99999639  0.50000052  1
  Li  Li74  1  0.99999639  0.63716477  0.49999948  1
  Li  Li75  1  0.36283373  0.36283373  0.50000000  1
  Li  Li76  1  0.63716477  0.99999639  0.99999948  1
  Li  Li77  1  0.99999639  0.63716477  0.00000052  1
  Li  Li78  1  0.36283373  0.36283373  -0.00000000  1
  Li  Li79  1  0.36283523  0.00000361  0.49999948  1
  Li  Li80  1  0.00000361  0.36283523  0.50000052  1
  Li  Li81  1  0.63716627  0.63716627  0.50000000  1
  Li  Li82  1  0.33332753  0.66667247  0.09932971  1
  Li  Li83  1  0.66667247  0.33332753  0.59932971  1
  Li  Li84  1  0.66667247  0.33332753  0.90067029  1
  Li  Li85  1  0.33332753  0.66667247  0.40067029  1
  Li  Li86  1  0.07084919  0.14170875  0.25000000  1
  Li  Li87  1  0.85829125  0.92915081  0.25000000  1
  Li  Li88  1  0.07085292  0.92914708  0.25000000  1
  Li  Li89  1  0.92915081  0.85829125  0.75000000  1
  Li  Li90  1  0.14170875  0.07084919  0.75000000  1
  Li  Li91  1  0.92914708  0.07085292  0.75000000  1
