# generated using pymatgen
data_H8He2Li
_symmetry_space_group_name_H-M   'P 1'
_cell_length_a   5.55191189
_cell_length_b   8.73036494
_cell_length_c   11.15388695
_cell_angle_alpha   89.99996205
_cell_angle_beta   90.00000000
_cell_angle_gamma   90.00000000
_symmetry_Int_Tables_number   1
_chemical_formula_structural   H8He2Li
_chemical_formula_sum   'H32 He8 Li4'
_cell_volume   540.63132025
_cell_formula_units_Z   4
loop_
 _symmetry_equiv_pos_site_id
 _symmetry_equiv_pos_as_xyz
  1  'x, y, z'
loop_
 _atom_site_type_symbol
 _atom_site_label
 _atom_site_symmetry_multiplicity
 _atom_site_fract_x
 _atom_site_fract_y
 _atom_site_fract_z
 _atom_site_occupancy
  H  H0  1  0.53524284  0.39371995  0.84040542  1
  H  H1  1  0.46475989  0.10623845  0.34041164  1
  H  H2  1  0.03524224  0.60624710  0.15958603  1
  H  H3  1  0.96475246  0.89370536  0.65958867  1
  H  H4  1  0.46475776  0.60624710  0.15958603  1
  H  H5  1  0.53524754  0.89370536  0.65958867  1
  H  H6  1  0.96475716  0.39371995  0.84040542  1
  H  H7  1  0.03524011  0.10623845  0.34041164  1
  H  H8  1  0.25000000  0.24418975  0.69375510  1
  H  H9  1  0.75000000  0.25576394  0.19375800  1
  H  H10  1  0.75000000  0.75575270  0.30624611  1
  H  H11  1  0.25000000  0.74419960  0.80625620  1
  H  H12  1  0.25000000  0.01430454  0.85967419  1
  H  H13  1  0.75000000  0.48564706  0.35966750  1
  H  H14  1  0.75000000  0.98566606  0.14032724  1
  H  H15  1  0.25000000  0.51428814  0.64032560  1
  H  H16  1  0.03165518  0.33228171  0.51900738  1
  H  H17  1  0.96833998  0.16767552  0.01900966  1
  H  H18  1  0.53165918  0.66765347  0.48098830  1
  H  H19  1  0.46834383  0.83230263  0.98099828  1
  H  H20  1  0.96834082  0.66765347  0.48098830  1
  H  H21  1  0.03165617  0.83230263  0.98099828  1
  H  H22  1  0.46834482  0.33228171  0.51900738  1
  H  H23  1  0.53166002  0.16767552  0.01900966  1
  H  H24  1  0.25000000  0.39518045  0.25064103  1
  H  H25  1  0.75000000  0.10477781  0.75067828  1
  H  H26  1  0.75000000  0.60479282  0.74933903  1
  H  H27  1  0.25000000  0.89517724  0.24935885  1
  H  H28  1  0.25000000  0.43129582  0.03232930  1
  H  H29  1  0.75000000  0.06867213  0.53234527  1
  H  H30  1  0.75000000  0.56868058  0.96765951  1
  H  H31  1  0.25000000  0.93128020  0.46766694  1
  He  He32  1  0.25000000  0.35434026  0.59293034  1
  He  He33  1  0.75000000  0.14561697  0.09292683  1
  He  He34  1  0.75000000  0.64560608  0.40707332  1
  He  He35  1  0.25000000  0.85434812  0.90707064  1
  He  He36  1  0.75000000  0.49739732  0.84638522  1
  He  He37  1  0.25000000  0.00253768  0.34638188  1
  He  He38  1  0.25000000  0.50256301  0.15361087  1
  He  He39  1  0.75000000  0.99736068  0.65359982  1
  Li  Li40  1  0.25000000  0.25652508  0.89873750  1
  Li  Li41  1  0.75000000  0.24343308  0.39874099  1
  Li  Li42  1  0.75000000  0.74344491  0.10125981  1
  Li  Li43  1  0.25000000  0.75650958  0.60126389  1
