# generated using pymatgen
data_H2He8Li2Be
_symmetry_space_group_name_H-M   'P 1'
_cell_length_a   8.65279320
_cell_length_b   8.65279320
_cell_length_c   5.31358405
_cell_angle_alpha   90.00000000
_cell_angle_beta   90.00000000
_cell_angle_gamma   90.00000000
_symmetry_Int_Tables_number   1
_chemical_formula_structural   H2He8Li2Be
_chemical_formula_sum   'H4 He16 Li4 Be2'
_cell_volume   397.83244891
_cell_formula_units_Z   2
loop_
 _symmetry_equiv_pos_site_id
 _symmetry_equiv_pos_as_xyz
  1  'x, y, z'
loop_
 _atom_site_type_symbol
 _atom_site_label
 _atom_site_symmetry_multiplicity
 _atom_site_fract_x
 _atom_site_fract_y
 _atom_site_fract_z
 _atom_site_occupancy
  H  H0  1  0.32657590  0.82657590  0.01511220  1
  H  H1  1  0.67342410  0.17342410  0.01511220  1
  H  H2  1  0.17342410  0.32657590  0.01511220  1
  H  H3  1  0.82657590  0.67342410  0.01511220  1
  He  He4  1  0.00000000  0.50000000  0.38119770  1
  He  He5  1  0.50000000  -0.00000000  0.38119770  1
  He  He6  1  0.12614741  0.62614741  0.80078427  1
  He  He7  1  0.87385259  0.37385259  0.80078427  1
  He  He8  1  0.37385259  0.12614741  0.80078427  1
  He  He9  1  0.62614741  0.87385259  0.80078427  1
  He  He10  1  0.29210834  0.57763771  0.36720914  1
  He  He11  1  0.70789166  0.42236229  0.36720914  1
  He  He12  1  0.42236229  0.29210834  0.36720914  1
  He  He13  1  0.57763771  0.70789166  0.36720914  1
  He  He14  1  0.79210834  0.92236229  0.36720914  1
  He  He15  1  0.20789166  0.07763771  0.36720914  1
  He  He16  1  0.92236229  0.20789166  0.36720914  1
  He  He17  1  0.07763771  0.79210834  0.36720914  1
  He  He18  1  0.00000000  0.00000000  0.80342283  1
  He  He19  1  0.50000000  0.50000000  0.80342283  1
  Li  Li20  1  0.12780785  0.62780785  0.49811839  1
  Li  Li21  1  0.87219215  0.37219215  0.49811839  1
  Li  Li22  1  0.37219215  0.12780785  0.49811839  1
  Li  Li23  1  0.62780785  0.87219215  0.49811839  1
  Be  Be24  1  0.00000000  -0.00000000  0.47571319  1
  Be  Be25  1  0.50000000  0.50000000  0.47571319  1
