# generated using pymatgen
data_H9He4Li
_symmetry_space_group_name_H-M   'P 1'
_cell_length_a   8.15287676
_cell_length_b   8.15287676
_cell_length_c   8.15287676
_cell_angle_alpha   121.82975379
_cell_angle_beta   121.82975379
_cell_angle_gamma   86.85895334
_symmetry_Int_Tables_number   1
_chemical_formula_structural   H9He4Li
_chemical_formula_sum   'H18 He8 Li2'
_cell_volume   371.98711000
_cell_formula_units_Z   2
loop_
 _symmetry_equiv_pos_site_id
 _symmetry_equiv_pos_as_xyz
  1  'x, y, z'
loop_
 _atom_site_type_symbol
 _atom_site_label
 _atom_site_symmetry_multiplicity
 _atom_site_fract_x
 _atom_site_fract_y
 _atom_site_fract_z
 _atom_site_occupancy
  H  H0  1  0.68566374  0.18566374  0.23930702  1
  H  H1  1  0.94635672  0.44635672  0.76069298  1
  H  H2  1  0.44635672  0.68566374  0.50000000  1
  H  H3  1  0.18566374  0.94635672  0.50000000  1
  H  H4  1  0.81433626  0.05364328  0.50000000  1
  H  H5  1  0.55364328  0.31433626  0.50000000  1
  H  H6  1  0.05364328  0.55364328  0.23930702  1
  H  H7  1  0.31433626  0.81433626  0.76069298  1
  H  H8  1  0.80222238  0.92478731  0.72700969  1
  H  H9  1  0.19777762  0.07521269  0.27299031  1
  H  H10  1  0.07521269  0.80222238  0.87743507  1
  H  H11  1  0.92478731  0.19777762  0.12256493  1
  H  H12  1  0.69777762  0.42478731  0.12256493  1
  H  H13  1  0.30222238  0.57521269  0.87743507  1
  H  H14  1  0.42478731  0.30222238  0.72700969  1
  H  H15  1  0.57521269  0.69777762  0.27299031  1
  H  H16  1  0.00000000  0.50000000  0.50000000  1
  H  H17  1  0.50000000  -0.00000000  0.50000000  1
  He  He18  1  0.54296351  0.04296351  0.83189484  1
  He  He19  1  0.21106867  0.71106867  0.16810516  1
  He  He20  1  0.71106867  0.54296351  0.50000000  1
  He  He21  1  0.04296351  0.21106867  0.50000000  1
  He  He22  1  0.95703649  0.78893133  0.50000000  1
  He  He23  1  0.28893133  0.45703649  0.50000000  1
  He  He24  1  0.78893133  0.28893133  0.83189484  1
  He  He25  1  0.45703649  0.95703649  0.16810516  1
  Li  Li26  1  0.75000000  0.75000000  -0.00000000  1
  Li  Li27  1  0.25000000  0.25000000  -0.00000000  1
