# generated using pymatgen
data_H3He
_symmetry_space_group_name_H-M   'P 1'
_cell_length_a   9.08323164
_cell_length_b   9.08323164
_cell_length_c   9.01583594
_cell_angle_alpha   34.62359494
_cell_angle_beta   34.62359494
_cell_angle_gamma   35.08899860
_symmetry_Int_Tables_number   1
_chemical_formula_structural   H3He
_chemical_formula_sum   'H9 He3'
_cell_volume   215.99065426
_cell_formula_units_Z   3
loop_
 _symmetry_equiv_pos_site_id
 _symmetry_equiv_pos_as_xyz
  1  'x, y, z'
loop_
 _atom_site_type_symbol
 _atom_site_label
 _atom_site_symmetry_multiplicity
 _atom_site_fract_x
 _atom_site_fract_y
 _atom_site_fract_z
 _atom_site_occupancy
  H  H0  1  0.57879065  0.57879065  0.08774347  1
  H  H1  1  0.08071184  0.58353850  0.58147894  1
  H  H2  1  0.58353850  0.08071184  0.58147894  1
  H  H3  1  0.41859027  0.41859027  0.91536355  1
  H  H4  1  0.41878774  0.91598507  0.42185311  1
  H  H5  1  0.91598507  0.41878774  0.42185311  1
  H  H6  1  0.33863333  0.33863333  0.32383172  1
  H  H7  1  0.66193775  0.66193775  0.67905457  1
  H  H8  1  0.50377528  0.50377528  0.49230980  1
  He  He9  1  0.14398091  0.14398091  0.13974490  1
  He  He10  1  0.85608336  0.85608336  0.85951855  1
  He  He11  1  0.99918527  0.99918527  -0.00323065  1
