# generated using pymatgen
data_H2He6LiBe
_symmetry_space_group_name_H-M   'P 1'
_cell_length_a   6.10130648
_cell_length_b   6.10130648
_cell_length_c   6.10130648
_cell_angle_alpha   61.11085219
_cell_angle_beta   61.11085219
_cell_angle_gamma   61.11085219
_symmetry_Int_Tables_number   1
_chemical_formula_structural   H2He6LiBe
_chemical_formula_sum   'H2 He6 Li1 Be1'
_cell_volume   164.61850309
_cell_formula_units_Z   1
loop_
 _symmetry_equiv_pos_site_id
 _symmetry_equiv_pos_as_xyz
  1  'x, y, z'
loop_
 _atom_site_type_symbol
 _atom_site_label
 _atom_site_symmetry_multiplicity
 _atom_site_fract_x
 _atom_site_fract_y
 _atom_site_fract_z
 _atom_site_occupancy
  H  H0  1  0.74583538  0.74583538  0.74583538  1
  H  H1  1  0.25416462  0.25416462  0.25416462  1
  He  He2  1  0.28703075  0.66012575  0.78179316  1
  He  He3  1  0.66012575  0.78179316  0.28703075  1
  He  He4  1  0.78179316  0.28703075  0.66012575  1
  He  He5  1  0.71296925  0.33987425  0.21820684  1
  He  He6  1  0.33987425  0.21820684  0.71296925  1
  He  He7  1  0.21820684  0.71296925  0.33987425  1
  Li  Li8  1  0.00000000  0.00000000  0.00000000  1
  Be  Be9  1  0.50000000  0.50000000  0.50000000  1
