# generated using pymatgen
data_H2HeLiBe4
_symmetry_space_group_name_H-M   'P 1'
_cell_length_a   6.29403924
_cell_length_b   6.57993020
_cell_length_c   7.69435473
_cell_angle_alpha   90.00000000
_cell_angle_beta   90.00000000
_cell_angle_gamma   90.00520332
_symmetry_Int_Tables_number   1
_chemical_formula_structural   H2HeLiBe4
_chemical_formula_sum   'H4 He2 Li2 Be8'
_cell_volume   318.65661283
_cell_formula_units_Z   2
loop_
 _symmetry_equiv_pos_site_id
 _symmetry_equiv_pos_as_xyz
  1  'x, y, z'
loop_
 _atom_site_type_symbol
 _atom_site_label
 _atom_site_symmetry_multiplicity
 _atom_site_fract_x
 _atom_site_fract_y
 _atom_site_fract_z
 _atom_site_occupancy
  H  H0  1  0.99103538  0.67540443  0.24894023  1
  H  H1  1  0.49105765  0.32459839  0.25107071  1
  H  H2  1  0.49105765  0.32459839  0.74892929  1
  H  H3  1  0.99103538  0.67540443  0.75105977  1
  He  He4  1  0.99752712  0.17475294  0.00000000  1
  He  He5  1  0.49760105  0.82526470  0.50000000  1
  Li  Li6  1  0.49936749  0.84115673  0.00000000  1
  Li  Li7  1  0.99961316  0.15881029  0.50000000  1
  Be  Be8  1  0.63763145  0.19006340  0.00000000  1
  Be  Be9  1  0.13768540  0.80989292  0.50000000  1
  Be  Be10  1  0.10559271  0.84697503  0.00000000  1
  Be  Be11  1  0.60575681  0.15301764  0.50000000  1
  Be  Be12  1  0.62318511  0.65813878  0.26416870  1
  Be  Be13  1  0.12320928  0.34189157  0.23579691  1
  Be  Be14  1  0.12320928  0.34189157  0.76420309  1
  Be  Be15  1  0.62318511  0.65813878  0.73583130  1
