# generated using pymatgen
data_HHe22
_symmetry_space_group_name_H-M   'P 1'
_cell_length_a   9.84032496
_cell_length_b   9.84032496
_cell_length_c   9.84032496
_cell_angle_alpha   60.00000000
_cell_angle_beta   60.00000000
_cell_angle_gamma   60.00000000
_symmetry_Int_Tables_number   1
_chemical_formula_structural   HHe22
_chemical_formula_sum   'H2 He44'
_cell_volume   673.77256567
_cell_formula_units_Z   2
loop_
 _symmetry_equiv_pos_site_id
 _symmetry_equiv_pos_as_xyz
  1  'x, y, z'
loop_
 _atom_site_type_symbol
 _atom_site_label
 _atom_site_symmetry_multiplicity
 _atom_site_fract_x
 _atom_site_fract_y
 _atom_site_fract_z
 _atom_site_occupancy
  H  H0  1  0.12500000  0.62500000  0.12500000  1
  H  H1  1  0.87500000  0.37500000  0.87500000  1
  He  He2  1  0.48647251  0.26352749  0.48647251  1
  He  He3  1  0.76352749  0.98647251  0.76352749  1
  He  He4  1  0.76352749  0.26352749  0.48647251  1
  He  He5  1  0.48647251  0.98647251  0.76352749  1
  He  He6  1  0.48647251  0.26352749  0.76352749  1
  He  He7  1  0.76352749  0.98647251  0.48647251  1
  He  He8  1  0.51352749  0.01352749  0.23647251  1
  He  He9  1  0.23647251  0.73647251  0.51352749  1
  He  He10  1  0.23647251  0.01352749  0.23647251  1
  He  He11  1  0.51352749  0.73647251  0.51352749  1
  He  He12  1  0.51352749  0.73647251  0.23647251  1
  He  He13  1  0.23647251  0.01352749  0.51352749  1
  He  He14  1  0.31944329  0.55758387  0.80352955  1
  He  He15  1  0.31944329  0.30352955  0.05758387  1
  He  He16  1  0.05758387  0.81944329  0.31944329  1
  He  He17  1  0.80352955  0.81944329  0.31944329  1
  He  He18  1  0.31944329  0.55758387  0.31944329  1
  He  He19  1  0.31944329  0.30352955  0.31944329  1
  He  He20  1  0.80352955  0.81944329  0.05758387  1
  He  He21  1  0.05758387  0.81944329  0.80352955  1
  He  He22  1  0.80352955  0.55758387  0.31944329  1
  He  He23  1  0.05758387  0.30352955  0.31944329  1
  He  He24  1  0.31944329  0.81944329  0.80352955  1
  He  He25  1  0.31944329  0.81944329  0.05758387  1
  He  He26  1  0.68055671  0.69647045  0.94241613  1
  He  He27  1  0.68055671  0.44241613  0.19647045  1
  He  He28  1  0.94241613  0.18055671  0.68055671  1
  He  He29  1  0.19647045  0.18055671  0.68055671  1
  He  He30  1  0.68055671  0.18055671  0.94241613  1
  He  He31  1  0.68055671  0.18055671  0.19647045  1
  He  He32  1  0.19647045  0.44241613  0.68055671  1
  He  He33  1  0.94241613  0.69647045  0.68055671  1
  He  He34  1  0.19647045  0.18055671  0.94241613  1
  He  He35  1  0.94241613  0.18055671  0.19647045  1
  He  He36  1  0.68055671  0.69647045  0.68055671  1
  He  He37  1  0.68055671  0.44241613  0.68055671  1
  He  He38  1  -0.00000000  -0.00000000  0.00000000  1
  He  He39  1  0.00000000  0.50000000  0.50000000  1
  He  He40  1  0.50000000  0.50000000  -0.00000000  1
  He  He41  1  -0.00000000  0.50000000  -0.00000000  1
  He  He42  1  0.50000000  0.50000000  0.50000000  1
  He  He43  1  0.50000000  -0.00000000  0.00000000  1
  He  He44  1  -0.00000000  0.00000000  0.50000000  1
  He  He45  1  0.50000000  -0.00000000  0.50000000  1
