# generated using pymatgen
data_H2He2LiBe7
_symmetry_space_group_name_H-M   'P 1'
_cell_length_a   7.53098242
_cell_length_b   7.53098242
_cell_length_c   4.86974513
_cell_angle_alpha   90.00000000
_cell_angle_beta   90.00000000
_cell_angle_gamma   90.00000000
_symmetry_Int_Tables_number   1
_chemical_formula_structural   H2He2LiBe7
_chemical_formula_sum   'H4 He4 Li2 Be14'
_cell_volume   276.19098554
_cell_formula_units_Z   2
loop_
 _symmetry_equiv_pos_site_id
 _symmetry_equiv_pos_as_xyz
  1  'x, y, z'
loop_
 _atom_site_type_symbol
 _atom_site_label
 _atom_site_symmetry_multiplicity
 _atom_site_fract_x
 _atom_site_fract_y
 _atom_site_fract_z
 _atom_site_occupancy
  H  H0  1  0.13416865  0.63416865  0.95485089  1
  H  H1  1  0.86583135  0.36583135  0.95485089  1
  H  H2  1  0.63416865  0.86583135  0.04514911  1
  H  H3  1  0.36583135  0.13416865  0.04514911  1
  He  He4  1  0.34130994  0.84130994  0.50516808  1
  He  He5  1  0.65869006  0.15869006  0.50516808  1
  He  He6  1  0.84130994  0.65869006  0.49483192  1
  He  He7  1  0.15869006  0.34130994  0.49483192  1
  Li  Li8  1  -0.00000000  0.00000000  0.00000000  1
  Li  Li9  1  0.50000000  0.50000000  0.00000000  1
  Be  Be10  1  0.00000000  0.50000000  0.81877750  1
  Be  Be11  1  0.50000000  0.00000000  0.18122250  1
  Be  Be12  1  0.14206990  0.64206990  0.28108852  1
  Be  Be13  1  0.85793010  0.35793010  0.28108852  1
  Be  Be14  1  0.64206990  0.85793010  0.71891148  1
  Be  Be15  1  0.35793010  0.14206990  0.71891148  1
  Be  Be16  1  0.08062969  0.82717894  0.78777081  1
  Be  Be17  1  0.91937031  0.17282106  0.78777081  1
  Be  Be18  1  0.82717894  0.91937031  0.21222919  1
  Be  Be19  1  0.17282106  0.08062969  0.21222919  1
  Be  Be20  1  0.41937031  0.32717894  0.21222919  1
  Be  Be21  1  0.58062969  0.67282106  0.21222919  1
  Be  Be22  1  0.67282106  0.41937031  0.78777081  1
  Be  Be23  1  0.32717894  0.58062969  0.78777081  1
