# generated using pymatgen
data_HHeLi5Be2
_symmetry_space_group_name_H-M   'P 1'
_cell_length_a   5.71627305
_cell_length_b   7.23918211
_cell_length_c   12.28020663
_cell_angle_alpha   90.00000000
_cell_angle_beta   90.00000000
_cell_angle_gamma   90.00000000
_symmetry_Int_Tables_number   1
_chemical_formula_structural   HHeLi5Be2
_chemical_formula_sum   'H4 He4 Li20 Be8'
_cell_volume   508.16896947
_cell_formula_units_Z   4
loop_
 _symmetry_equiv_pos_site_id
 _symmetry_equiv_pos_as_xyz
  1  'x, y, z'
loop_
 _atom_site_type_symbol
 _atom_site_label
 _atom_site_symmetry_multiplicity
 _atom_site_fract_x
 _atom_site_fract_y
 _atom_site_fract_z
 _atom_site_occupancy
  H  H0  1  0.25000000  0.06996848  0.90435091  1
  H  H1  1  0.75000000  0.56996848  0.59564909  1
  H  H2  1  0.75000000  0.93003152  0.09564909  1
  H  H3  1  0.25000000  0.43003152  0.40435091  1
  He  He4  1  0.25000000  0.28565125  0.65977046  1
  He  He5  1  0.75000000  0.78565125  0.84022954  1
  He  He6  1  0.75000000  0.71434875  0.34022954  1
  He  He7  1  0.25000000  0.21434875  0.15977046  1
  Li  Li8  1  0.49297289  0.16285302  0.56816152  1
  Li  Li9  1  0.50702711  0.66285302  0.93183848  1
  Li  Li10  1  0.99297289  0.83714698  0.43183848  1
  Li  Li11  1  0.00702711  0.33714698  0.06816152  1
  Li  Li12  1  0.50702711  0.83714698  0.43183848  1
  Li  Li13  1  0.49297289  0.33714698  0.06816152  1
  Li  Li14  1  0.00702711  0.16285302  0.56816152  1
  Li  Li15  1  0.99297289  0.66285302  0.93183848  1
  Li  Li16  1  0.49580151  0.35585446  0.77174019  1
  Li  Li17  1  0.50419849  0.85585446  0.72825981  1
  Li  Li18  1  0.99580151  0.64414554  0.22825981  1
  Li  Li19  1  0.00419849  0.14414554  0.27174019  1
  Li  Li20  1  0.50419849  0.64414554  0.22825981  1
  Li  Li21  1  0.49580151  0.14414554  0.27174019  1
  Li  Li22  1  0.00419849  0.35585446  0.77174019  1
  Li  Li23  1  0.99580151  0.85585446  0.72825981  1
  Li  Li24  1  0.25000000  0.58288915  0.59963924  1
  Li  Li25  1  0.75000000  0.08288915  0.90036076  1
  Li  Li26  1  0.75000000  0.41711085  0.40036076  1
  Li  Li27  1  0.25000000  0.91711085  0.09963924  1
  Be  Be28  1  0.25000000  0.89617143  0.57379469  1
  Be  Be29  1  0.75000000  0.39617143  0.92620531  1
  Be  Be30  1  0.75000000  0.10382857  0.42620531  1
  Be  Be31  1  0.25000000  0.60382857  0.07379469  1
  Be  Be32  1  0.25000000  0.61478535  0.78765725  1
  Be  Be33  1  0.75000000  0.11478535  0.71234275  1
  Be  Be34  1  0.75000000  0.38521465  0.21234275  1
  Be  Be35  1  0.25000000  0.88521465  0.28765725  1
