# generated using pymatgen
data_H9He(Li6Be)2
_symmetry_space_group_name_H-M   'P 1'
_cell_length_a   6.96850826
_cell_length_b   11.36329048
_cell_length_c   13.70501120
_cell_angle_alpha   68.67345813
_cell_angle_beta   90.00000000
_cell_angle_gamma   90.00000000
_symmetry_Int_Tables_number   1
_chemical_formula_structural   H9He(Li6Be)2
_chemical_formula_sum   'H36 He4 Li48 Be8'
_cell_volume   1010.92011234
_cell_formula_units_Z   4
loop_
 _symmetry_equiv_pos_site_id
 _symmetry_equiv_pos_as_xyz
  1  'x, y, z'
loop_
 _atom_site_type_symbol
 _atom_site_label
 _atom_site_symmetry_multiplicity
 _atom_site_fract_x
 _atom_site_fract_y
 _atom_site_fract_z
 _atom_site_occupancy
  H  H0  1  0.91600460  0.31479098  0.65567160  1
  H  H1  1  0.41600460  0.68520902  0.84432840  1
  H  H2  1  0.08399540  0.68520902  0.34432840  1
  H  H3  1  0.58399540  0.31479098  0.15567160  1
  H  H4  1  0.91346731  0.19125019  0.75610731  1
  H  H5  1  0.41346731  0.80874981  0.74389269  1
  H  H6  1  0.08653269  0.80874981  0.24389269  1
  H  H7  1  0.58653269  0.19125019  0.25610731  1
  H  H8  1  0.16310591  0.87354052  0.59421016  1
  H  H9  1  0.66310591  0.12645948  0.90578984  1
  H  H10  1  0.83689409  0.12645948  0.40578984  1
  H  H11  1  0.33689409  0.87354052  0.09421016  1
  H  H12  1  0.09554723  0.85223035  0.70910521  1
  H  H13  1  0.59554723  0.14776965  0.79089479  1
  H  H14  1  0.90445277  0.14776965  0.29089479  1
  H  H15  1  0.40445277  0.85223035  0.20910521  1
  H  H16  1  0.75665554  0.45254906  0.80207785  1
  H  H17  1  0.25665554  0.54745094  0.69792215  1
  H  H18  1  0.24334446  0.54745094  0.19792215  1
  H  H19  1  0.74334446  0.45254906  0.30207785  1
  H  H20  1  0.87981274  0.36108030  0.90954010  1
  H  H21  1  0.37981274  0.63891970  0.59045990  1
  H  H22  1  0.12018726  0.63891970  0.09045990  1
  H  H23  1  0.62018726  0.36108030  0.40954010  1
  H  H24  1  0.63111550  0.37080052  0.91402508  1
  H  H25  1  0.13111550  0.62919948  0.58597492  1
  H  H26  1  0.36888450  0.62919948  0.08597492  1
  H  H27  1  0.86888450  0.37080052  0.41402508  1
  H  H28  1  0.36206618  0.31690291  0.72955525  1
  H  H29  1  0.86206618  0.68309709  0.77044475  1
  H  H30  1  0.63793382  0.68309709  0.27044475  1
  H  H31  1  0.13793382  0.31690291  0.22955525  1
  H  H32  1  0.52776800  0.34498833  0.64545986  1
  H  H33  1  0.02776800  0.65501167  0.85454014  1
  H  H34  1  0.47223200  0.65501167  0.35454014  1
  H  H35  1  0.97223200  0.34498833  0.14545986  1
  He  He36  1  0.22887052  0.14450337  0.59768790  1
  He  He37  1  0.72887052  0.85549663  0.90231210  1
  He  He38  1  0.77112948  0.85549663  0.40231210  1
  He  He39  1  0.27112948  0.14450337  0.09768790  1
  Li  Li40  1  0.56003044  0.07917533  0.59080261  1
  Li  Li41  1  0.06003044  0.92082467  0.90919739  1
  Li  Li42  1  0.43996956  0.92082467  0.40919739  1
  Li  Li43  1  0.93996956  0.07917533  0.09080261  1
  Li  Li44  1  0.73844559  0.90657233  0.56784628  1
  Li  Li45  1  0.23844559  0.09342767  0.93215372  1
  Li  Li46  1  0.26155441  0.09342767  0.43215372  1
  Li  Li47  1  0.76155441  0.90657233  0.06784628  1
  Li  Li48  1  0.80947923  0.97205341  0.71426384  1
  Li  Li49  1  0.30947923  0.02794659  0.78573616  1
  Li  Li50  1  0.19052077  0.02794659  0.28573616  1
  Li  Li51  1  0.69052077  0.97205341  0.21426384  1
  Li  Li52  1  0.89258024  0.10893433  0.53825272  1
  Li  Li53  1  0.39258024  0.89106567  0.96174728  1
  Li  Li54  1  0.10741976  0.89106567  0.46174728  1
  Li  Li55  1  0.60741976  0.10893433  0.03825272  1
  Li  Li56  1  0.73397888  0.44448835  0.59766537  1
  Li  Li57  1  0.23397888  0.55551165  0.90233463  1
  Li  Li58  1  0.26602112  0.55551165  0.40233463  1
  Li  Li59  1  0.76602112  0.44448835  0.09766537  1
  Li  Li60  1  0.78059268  0.56788430  0.70869683  1
  Li  Li61  1  0.28059268  0.43211570  0.79130317  1
  Li  Li62  1  0.21940732  0.43211570  0.29130317  1
  Li  Li63  1  0.71940732  0.56788430  0.20869683  1
  Li  Li64  1  0.92633846  0.63928711  0.53459724  1
  Li  Li65  1  0.42633846  0.36071289  0.96540276  1
  Li  Li66  1  0.07366154  0.36071289  0.46540276  1
  Li  Li67  1  0.57366154  0.63928711  0.03459724  1
  Li  Li68  1  0.41118439  0.34460041  0.45251641  1
  Li  Li69  1  0.91118439  0.65539959  0.04748359  1
  Li  Li70  1  0.58881561  0.65539959  0.54748359  1
  Li  Li71  1  0.08881561  0.34460041  0.95251641  1
  Li  Li72  1  0.99490671  0.24132740  0.69647706  1
  Li  Li73  1  0.49490671  0.75867260  0.80352294  1
  Li  Li74  1  0.00509329  0.75867260  0.30352294  1
  Li  Li75  1  0.50509329  0.24132740  0.19647706  1
  Li  Li76  1  0.19627478  0.89336504  0.65712823  1
  Li  Li77  1  0.69627478  0.10663496  0.84287177  1
  Li  Li78  1  0.80372522  0.10663496  0.34287177  1
  Li  Li79  1  0.30372522  0.89336504  0.15712823  1
  Li  Li80  1  0.75120271  0.37276920  0.87063370  1
  Li  Li81  1  0.25120271  0.62723080  0.62936630  1
  Li  Li82  1  0.24879729  0.62723080  0.12936630  1
  Li  Li83  1  0.74879729  0.37276920  0.37063370  1
  Li  Li84  1  0.43257562  0.28050134  0.68479691  1
  Li  Li85  1  0.93257562  0.71949866  0.81520309  1
  Li  Li86  1  0.56742438  0.71949866  0.31520309  1
  Li  Li87  1  0.06742438  0.28050134  0.18479691  1
  Be  Be88  1  0.74762374  0.01501590  0.60311334  1
  Be  Be89  1  0.24762374  0.98498410  0.89688666  1
  Be  Be90  1  0.25237626  0.98498410  0.39688666  1
  Be  Be91  1  0.75237626  0.01501590  0.10311334  1
  Be  Be92  1  0.75635993  0.57279759  0.59881940  1
  Be  Be93  1  0.25635993  0.42720241  0.90118060  1
  Be  Be94  1  0.24364007  0.42720241  0.40118060  1
  Be  Be95  1  0.74364007  0.57279759  0.09881940  1
