# generated using pymatgen
data_HHe3LiBe7
_symmetry_space_group_name_H-M   'P 1'
_cell_length_a   7.14095693
_cell_length_b   7.14095693
_cell_length_c   4.41299112
_cell_angle_alpha   90.00000000
_cell_angle_beta   90.00000000
_cell_angle_gamma   111.55083893
_symmetry_Int_Tables_number   1
_chemical_formula_structural   HHe3LiBe7
_chemical_formula_sum   'H2 He6 Li2 Be14'
_cell_volume   209.30123523
_cell_formula_units_Z   2
loop_
 _symmetry_equiv_pos_site_id
 _symmetry_equiv_pos_as_xyz
  1  'x, y, z'
loop_
 _atom_site_type_symbol
 _atom_site_label
 _atom_site_symmetry_multiplicity
 _atom_site_fract_x
 _atom_site_fract_y
 _atom_site_fract_z
 _atom_site_occupancy
  H  H0  1  -0.00000000  -0.00000000  0.00000000  1
  H  H1  1  0.50000000  0.50000000  0.00000000  1
  He  He2  1  0.75000000  0.75000000  0.50000000  1
  He  He3  1  0.25000000  0.25000000  0.50000000  1
  He  He4  1  0.86333662  0.13666338  0.54112160  1
  He  He5  1  0.63666338  0.36333662  0.54112160  1
  He  He6  1  0.36333662  0.63666338  0.45887840  1
  He  He7  1  0.13666338  0.86333662  0.45887840  1
  Li  Li8  1  0.50000000  -0.00000000  0.00000000  1
  Li  Li9  1  0.00000000  0.50000000  0.00000000  1
  Be  Be10  1  0.75000000  0.25000000  0.66964093  1
  Be  Be11  1  0.25000000  0.75000000  0.33035907  1
  Be  Be12  1  0.86867030  0.13132970  0.22363692  1
  Be  Be13  1  0.63132970  0.36867030  0.22363692  1
  Be  Be14  1  0.36867030  0.63132970  0.77636308  1
  Be  Be15  1  0.13132970  0.86867030  0.77636308  1
  Be  Be16  1  0.78056149  0.92662585  0.69888022  1
  Be  Be17  1  0.71943851  0.57337415  0.69888022  1
  Be  Be18  1  0.57337415  0.71943851  0.30111978  1
  Be  Be19  1  0.92662585  0.78056149  0.30111978  1
  Be  Be20  1  0.21943851  0.07337415  0.30111978  1
  Be  Be21  1  0.28056149  0.42662585  0.30111978  1
  Be  Be22  1  0.42662585  0.28056149  0.69888022  1
  Be  Be23  1  0.07337415  0.21943851  0.69888022  1
