# generated using pymatgen
data_H5He16Li3
_symmetry_space_group_name_H-M   'P 1'
_cell_length_a   5.43928458
_cell_length_b   7.64455031
_cell_length_c   7.64455031
_cell_angle_alpha   89.22446087
_cell_angle_beta   90.00000000
_cell_angle_gamma   90.00000000
_symmetry_Int_Tables_number   1
_chemical_formula_structural   H5He16Li3
_chemical_formula_sum   'H5 He16 Li3'
_cell_volume   317.83804522
_cell_formula_units_Z   1
loop_
 _symmetry_equiv_pos_site_id
 _symmetry_equiv_pos_as_xyz
  1  'x, y, z'
loop_
 _atom_site_type_symbol
 _atom_site_label
 _atom_site_symmetry_multiplicity
 _atom_site_fract_x
 _atom_site_fract_y
 _atom_site_fract_z
 _atom_site_occupancy
  H  H0  1  0.99053666  -0.00000000  0.50000000  1
  H  H1  1  0.50000000  0.75735934  0.24264066  1
  H  H2  1  0.00946334  0.50000000  -0.00000000  1
  H  H3  1  0.50000000  0.24264066  0.75735934  1
  H  H4  1  0.00000000  0.50000000  0.50000000  1
  He  He5  1  0.29404818  0.74538044  0.97190553  1
  He  He6  1  0.19922938  0.02524285  0.76659126  1
  He  He7  1  0.70595182  0.97190553  0.74538044  1
  He  He8  1  0.80077062  0.76659126  0.02524285  1
  He  He9  1  0.27338518  0.76062671  0.52459937  1
  He  He10  1  0.19922938  0.97475715  0.23340874  1
  He  He11  1  0.70595182  0.02809447  0.25461956  1
  He  He12  1  0.76448073  0.74449234  0.48157151  1
  He  He13  1  0.29404818  0.25461956  0.02809447  1
  He  He14  1  0.23552027  0.48157151  0.74449234  1
  He  He15  1  0.72661482  0.52459937  0.76062671  1
  He  He16  1  0.80076962  0.23340874  0.97475715  1
  He  He17  1  0.27338518  0.23937329  0.47540063  1
  He  He18  1  0.23552027  0.51842849  0.25550766  1
  He  He19  1  0.72661482  0.47540063  0.23937329  1
  He  He20  1  0.76447973  0.25550766  0.51842849  1
  Li  Li21  1  0.00000000  -0.00000000  0.00000000  1
  Li  Li22  1  0.50000000  0.74374275  0.74374275  1
  Li  Li23  1  0.50000000  0.25625725  0.25625725  1
