# generated using pymatgen
data_HHeLiBe
_symmetry_space_group_name_H-M   'P 1'
_cell_length_a   6.50057415
_cell_length_b   8.15016967
_cell_length_c   8.54579494
_cell_angle_alpha   90.00000000
_cell_angle_beta   90.00000000
_cell_angle_gamma   90.00000000
_symmetry_Int_Tables_number   1
_chemical_formula_structural   HHeLiBe
_chemical_formula_sum   'H4 He4 Li4 Be4'
_cell_volume   452.76290122
_cell_formula_units_Z   4
loop_
 _symmetry_equiv_pos_site_id
 _symmetry_equiv_pos_as_xyz
  1  'x, y, z'
loop_
 _atom_site_type_symbol
 _atom_site_label
 _atom_site_symmetry_multiplicity
 _atom_site_fract_x
 _atom_site_fract_y
 _atom_site_fract_z
 _atom_site_occupancy
  H  H0  1  0.25000000  0.17181546  0.43955452  1
  H  H1  1  0.75000000  0.32818454  0.93955452  1
  H  H2  1  0.75000000  0.82818454  0.56044548  1
  H  H3  1  0.25000000  0.67181546  0.06044548  1
  He  He4  1  0.25000000  0.17782349  0.89418112  1
  He  He5  1  0.75000000  0.32217651  0.39418112  1
  He  He6  1  0.75000000  0.82217651  0.10581888  1
  He  He7  1  0.25000000  0.67782349  0.60581888  1
  Li  Li8  1  0.25000000  0.28301751  0.53014176  1
  Li  Li9  1  0.75000000  0.21698249  0.03014176  1
  Li  Li10  1  0.75000000  0.71698249  0.46985824  1
  Li  Li11  1  0.25000000  0.78301751  0.96985824  1
  Be  Be12  1  0.25000000  0.02156712  0.31301896  1
  Be  Be13  1  0.75000000  0.47843288  0.81301896  1
  Be  Be14  1  0.75000000  0.97843288  0.68698104  1
  Be  Be15  1  0.25000000  0.52156712  0.18698104  1
