# generated using pymatgen
data_HHe3Li8Be3
_symmetry_space_group_name_H-M   'P 1'
_cell_length_a   8.48754419
_cell_length_b   8.48754419
_cell_length_c   14.02669752
_cell_angle_alpha   70.11034071
_cell_angle_beta   70.11034071
_cell_angle_gamma   75.67715692
_symmetry_Int_Tables_number   1
_chemical_formula_structural   HHe3Li8Be3
_chemical_formula_sum   'H4 He12 Li32 Be12'
_cell_volume   883.55037990
_cell_formula_units_Z   4
loop_
 _symmetry_equiv_pos_site_id
 _symmetry_equiv_pos_as_xyz
  1  'x, y, z'
loop_
 _atom_site_type_symbol
 _atom_site_label
 _atom_site_symmetry_multiplicity
 _atom_site_fract_x
 _atom_site_fract_y
 _atom_site_fract_z
 _atom_site_occupancy
  H  H0  1  0.26510379  0.81119349  0.55623831  1
  H  H1  1  0.18880651  0.73489621  0.94376169  1
  H  H2  1  0.73489621  0.18880651  0.44376169  1
  H  H3  1  0.81119349  0.26510379  0.05623831  1
  He  He4  1  0.19807613  0.20433157  0.52767501  1
  He  He5  1  0.79566843  0.80192387  0.97232499  1
  He  He6  1  0.80192387  0.79566843  0.47232499  1
  He  He7  1  0.20433157  0.19807613  0.02767501  1
  He  He8  1  0.21034999  0.41218959  0.38017119  1
  He  He9  1  0.58781041  0.78965001  0.11982881  1
  He  He10  1  0.78965001  0.58781041  0.61982881  1
  He  He11  1  0.41218959  0.21034999  0.88017119  1
  He  He12  1  0.27663189  0.14924124  0.36985767  1
  He  He13  1  0.85075876  0.72336811  0.13014233  1
  He  He14  1  0.72336811  0.85075876  0.63014233  1
  He  He15  1  0.14924124  0.27663189  0.86985767  1
  Li  Li16  1  0.16695216  0.15140863  0.63072081  1
  Li  Li17  1  0.84859137  0.83304784  0.86927919  1
  Li  Li18  1  0.83304784  0.84859137  0.36927919  1
  Li  Li19  1  0.15140863  0.16695216  0.13072081  1
  Li  Li20  1  0.19033017  0.57634143  0.33225222  1
  Li  Li21  1  0.42365857  0.80966983  0.16774778  1
  Li  Li22  1  0.80966983  0.42365857  0.66774778  1
  Li  Li23  1  0.57634143  0.19033017  0.83225222  1
  Li  Li24  1  0.32715841  0.04055274  0.31387667  1
  Li  Li25  1  0.95944726  0.67284159  0.18612333  1
  Li  Li26  1  0.67284159  0.95944726  0.68612333  1
  Li  Li27  1  0.04055274  0.32715841  0.81387667  1
  Li  Li28  1  0.45872712  0.79089846  0.45901289  1
  Li  Li29  1  0.20910154  0.54127288  0.04098711  1
  Li  Li30  1  0.54127288  0.20910154  0.54098711  1
  Li  Li31  1  0.79089846  0.45872712  0.95901289  1
  Li  Li32  1  0.37275339  0.85173917  0.63072205  1
  Li  Li33  1  0.14826083  0.62724661  0.86927795  1
  Li  Li34  1  0.62724661  0.14826083  0.36927795  1
  Li  Li35  1  0.85173917  0.37275339  0.13072205  1
  Li  Li36  1  0.27809984  0.59608795  0.62024588  1
  Li  Li37  1  0.40391205  0.72190016  0.87975412  1
  Li  Li38  1  0.72190016  0.40391205  0.37975412  1
  Li  Li39  1  0.59608795  0.27809984  0.12024588  1
  Li  Li40  1  0.06901552  0.86428726  0.64337239  1
  Li  Li41  1  0.13571274  0.93098448  0.85662761  1
  Li  Li42  1  0.93098448  0.13571274  0.35662761  1
  Li  Li43  1  0.86428726  0.06901552  0.14337239  1
  Li  Li44  1  0.15575701  0.80207404  0.47211033  1
  Li  Li45  1  0.19792596  0.84424299  0.02788967  1
  Li  Li46  1  0.84424299  0.19792596  0.52788967  1
  Li  Li47  1  0.80207404  0.15575701  0.97211033  1
  Be  Be48  1  0.24644862  0.08385300  0.47591126  1
  Be  Be49  1  0.91614700  0.75355138  0.02408874  1
  Be  Be50  1  0.75355138  0.91614700  0.52408874  1
  Be  Be51  1  0.08385300  0.24644862  0.97591126  1
  Be  Be52  1  0.17868792  0.36881118  0.48436548  1
  Be  Be53  1  0.63118882  0.82131208  0.01563452  1
  Be  Be54  1  0.82131208  0.63118882  0.51563452  1
  Be  Be55  1  0.36881118  0.17868792  0.98436548  1
  Be  Be56  1  0.25992000  0.31067570  0.31819503  1
  Be  Be57  1  0.68932430  0.74008000  0.18180497  1
  Be  Be58  1  0.74008000  0.68932430  0.68180497  1
  Be  Be59  1  0.31067570  0.25992000  0.81819503  1
