# generated using pymatgen
data_HHeLi3
_symmetry_space_group_name_H-M   'P 1'
_cell_length_a   7.48073835
_cell_length_b   8.66251518
_cell_length_c   13.71455810
_cell_angle_alpha   90.00000000
_cell_angle_beta   90.00000000
_cell_angle_gamma   90.00000000
_symmetry_Int_Tables_number   1
_chemical_formula_structural   HHeLi3
_chemical_formula_sum   'H8 He8 Li24'
_cell_volume   888.73092476
_cell_formula_units_Z   8
loop_
 _symmetry_equiv_pos_site_id
 _symmetry_equiv_pos_as_xyz
  1  'x, y, z'
loop_
 _atom_site_type_symbol
 _atom_site_label
 _atom_site_symmetry_multiplicity
 _atom_site_fract_x
 _atom_site_fract_y
 _atom_site_fract_z
 _atom_site_occupancy
  H  H0  1  0.84220150  0.32448954  0.75000000  1
  H  H1  1  0.34220150  0.17551046  0.25000000  1
  H  H2  1  0.15779850  0.67551046  0.25000000  1
  H  H3  1  0.65779850  0.82448954  0.75000000  1
  H  H4  1  0.14334301  0.14599911  0.75000000  1
  H  H5  1  0.64334301  0.35400089  0.25000000  1
  H  H6  1  0.85665699  0.85400089  0.25000000  1
  H  H7  1  0.35665699  0.64599911  0.75000000  1
  He  He8  1  0.82739785  0.20666323  0.75000000  1
  He  He9  1  0.32739785  0.29333677  0.25000000  1
  He  He10  1  0.17260215  0.79333677  0.25000000  1
  He  He11  1  0.67260215  0.70666323  0.75000000  1
  He  He12  1  0.24382550  0.06582734  0.75000000  1
  He  He13  1  0.74382550  0.43417266  0.25000000  1
  He  He14  1  0.75617450  0.93417266  0.25000000  1
  He  He15  1  0.25617450  0.56582734  0.75000000  1
  Li  Li16  1  0.77159774  0.12823166  0.85928154  1
  Li  Li17  1  0.27159774  0.37176834  0.14071846  1
  Li  Li18  1  0.22840226  0.87176834  0.35928154  1
  Li  Li19  1  0.72840226  0.62823166  0.64071846  1
  Li  Li20  1  0.22840226  0.87176834  0.14071846  1
  Li  Li21  1  0.72840226  0.62823166  0.85928154  1
  Li  Li22  1  0.77159774  0.12823166  0.64071846  1
  Li  Li23  1  0.27159774  0.37176834  0.35928154  1
  Li  Li24  1  0.51583965  0.19043602  0.90034232  1
  Li  Li25  1  0.01583965  0.30956398  0.09965768  1
  Li  Li26  1  0.48416035  0.80956398  0.40034232  1
  Li  Li27  1  0.98416035  0.69043602  0.59965768  1
  Li  Li28  1  0.48416035  0.80956398  0.09965768  1
  Li  Li29  1  0.98416035  0.69043602  0.90034232  1
  Li  Li30  1  0.51583965  0.19043602  0.59965768  1
  Li  Li31  1  0.01583965  0.30956398  0.40034232  1
  Li  Li32  1  0.33475858  0.02077982  0.85843546  1
  Li  Li33  1  0.83475858  0.47922018  0.14156454  1
  Li  Li34  1  0.66524142  0.97922018  0.35843546  1
  Li  Li35  1  0.16524142  0.52077982  0.64156454  1
  Li  Li36  1  0.66524142  0.97922018  0.14156454  1
  Li  Li37  1  0.16524142  0.52077982  0.85843546  1
  Li  Li38  1  0.33475858  0.02077982  0.64156454  1
  Li  Li39  1  0.83475858  0.47922018  0.35843546  1
