# generated using pymatgen
data_HHeLi
_symmetry_space_group_name_H-M   'P 1'
_cell_length_a   4.37959961
_cell_length_b   7.04324109
_cell_length_c   7.60818427
_cell_angle_alpha   90.00000000
_cell_angle_beta   90.00000000
_cell_angle_gamma   90.00000000
_symmetry_Int_Tables_number   1
_chemical_formula_structural   HHeLi
_chemical_formula_sum   'H4 He4 Li4'
_cell_volume   234.68643376
_cell_formula_units_Z   4
loop_
 _symmetry_equiv_pos_site_id
 _symmetry_equiv_pos_as_xyz
  1  'x, y, z'
loop_
 _atom_site_type_symbol
 _atom_site_label
 _atom_site_symmetry_multiplicity
 _atom_site_fract_x
 _atom_site_fract_y
 _atom_site_fract_z
 _atom_site_occupancy
  H  H0  1  0.25000000  0.80850224  0.41141265  1
  H  H1  1  0.75000000  0.69149776  0.91141265  1
  H  H2  1  0.75000000  0.19149776  0.58858735  1
  H  H3  1  0.25000000  0.30850224  0.08858735  1
  He  He4  1  0.25000000  0.20440676  0.41679416  1
  He  He5  1  0.75000000  0.29559324  0.91679416  1
  He  He6  1  0.75000000  0.79559324  0.58320584  1
  He  He7  1  0.25000000  0.70440676  0.08320584  1
  Li  Li8  1  0.25000000  0.49805401  0.70483972  1
  Li  Li9  1  0.75000000  0.00194599  0.20483972  1
  Li  Li10  1  0.75000000  0.50194599  0.29516028  1
  Li  Li11  1  0.25000000  0.99805401  0.79516028  1
