# generated using pymatgen
data_H2He3(LiBe2)3
_symmetry_space_group_name_H-M   'P 1'
_cell_length_a   9.31205940
_cell_length_b   9.31046148
_cell_length_c   5.90315965
_cell_angle_alpha   90.00000000
_cell_angle_beta   90.00000000
_cell_angle_gamma   120.00663818
_symmetry_Int_Tables_number   1
_chemical_formula_structural   H2He3(LiBe2)3
_chemical_formula_sum   'H4 He6 Li6 Be12'
_cell_volume   443.20336736
_cell_formula_units_Z   2
loop_
 _symmetry_equiv_pos_site_id
 _symmetry_equiv_pos_as_xyz
  1  'x, y, z'
loop_
 _atom_site_type_symbol
 _atom_site_label
 _atom_site_symmetry_multiplicity
 _atom_site_fract_x
 _atom_site_fract_y
 _atom_site_fract_z
 _atom_site_occupancy
  H  H0  1  0.33332487  0.66666012  0.01307128  1
  H  H1  1  0.66667513  0.33333988  0.51307128  1
  H  H2  1  0.66667513  0.33333988  0.98692872  1
  H  H3  1  0.33332487  0.66666012  0.48692872  1
  He  He4  1  0.38467143  0.04655536  0.25000000  1
  He  He5  1  0.95344699  0.33812692  0.25000000  1
  He  He6  1  0.66185982  0.61533570  0.25000000  1
  He  He7  1  0.61532857  0.95344464  0.75000000  1
  He  He8  1  0.04655301  0.66187308  0.75000000  1
  He  He9  1  0.33814018  0.38466430  0.75000000  1
  Li  Li10  1  0.20249616  0.23760676  0.25000000  1
  Li  Li11  1  0.76241861  0.96490726  0.25000000  1
  Li  Li12  1  0.03511065  0.79752728  0.25000000  1
  Li  Li13  1  0.79750384  0.76239324  0.75000000  1
  Li  Li14  1  0.23758139  0.03509274  0.75000000  1
  Li  Li15  1  0.96488935  0.20247272  0.75000000  1
  Be  Be16  1  0.53815549  0.36706389  0.00181400  1
  Be  Be17  1  0.63292230  0.17107512  0.00180930  1
  Be  Be18  1  0.82892306  0.46187491  0.00180687  1
  Be  Be19  1  0.46184451  0.63293611  0.50181400  1
  Be  Be20  1  0.36707770  0.82892488  0.50180930  1
  Be  Be21  1  0.17107694  0.53812509  0.50180687  1
  Be  Be22  1  0.46184451  0.63293611  0.99818600  1
  Be  Be23  1  0.36707770  0.82892488  0.99819070  1
  Be  Be24  1  0.17107694  0.53812509  0.99819313  1
  Be  Be25  1  0.53815549  0.36706389  0.49818600  1
  Be  Be26  1  0.63292230  0.17107512  0.49819070  1
  Be  Be27  1  0.82892306  0.46187491  0.49819313  1
