# generated using pymatgen
data_H2He
_symmetry_space_group_name_H-M   'P 1'
_cell_length_a   4.65162460
_cell_length_b   4.65167803
_cell_length_c   88.53775226
_cell_angle_alpha   90.00307262
_cell_angle_beta   90.00000000
_cell_angle_gamma   119.99962001
_symmetry_Int_Tables_number   1
_chemical_formula_structural   H2He
_chemical_formula_sum   'H24 He12'
_cell_volume   1659.10965995
_cell_formula_units_Z   12
loop_
 _symmetry_equiv_pos_site_id
 _symmetry_equiv_pos_as_xyz
  1  'x, y, z'
loop_
 _atom_site_type_symbol
 _atom_site_label
 _atom_site_symmetry_multiplicity
 _atom_site_fract_x
 _atom_site_fract_y
 _atom_site_fract_z
 _atom_site_occupancy
  H  H0  1  0.99998803  0.99997606  0.99968510  1
  H  H1  1  0.66668557  0.33337114  0.04199037  1
  H  H2  1  0.99998822  0.99997643  0.08301436  1
  H  H3  1  0.66668546  0.33337091  0.12532089  1
  H  H4  1  0.99998848  0.99997697  0.16634446  1
  H  H5  1  0.66668577  0.33337155  0.20866192  1
  H  H6  1  0.99998824  0.99997648  0.24968220  1
  H  H7  1  0.66668548  0.33337096  0.29199779  1
  H  H8  1  0.99998846  0.99997693  0.33302563  1
  H  H9  1  0.66668574  0.33337149  0.37533082  1
  H  H10  1  0.99998830  0.99997659  0.41634665  1
  H  H11  1  0.66668516  0.33337033  0.45864213  1
  H  H12  1  0.33331458  0.66662916  0.49968388  1
  H  H13  1  0.66668573  0.33337147  0.54198747  1
  H  H14  1  0.33331500  0.66662999  0.58300291  1
  H  H15  1  0.66668641  0.33337282  0.62530752  1
  H  H16  1  0.99998807  0.99997615  0.66634363  1
  H  H17  1  0.66668555  0.33337110  0.70865640  1
  H  H18  1  0.99998822  0.99997644  0.74966520  1
  H  H19  1  0.66668510  0.33337021  0.79198046  1
  H  H20  1  0.33331459  0.66662918  0.83302063  1
  H  H21  1  0.66668576  0.33337153  0.87532725  1
  H  H22  1  0.33331503  0.66663006  0.91634100  1
  H  H23  1  0.66668637  0.33337275  0.95863959  1
  He  He24  1  0.33332584  0.66665169  0.02083240  1
  He  He25  1  0.33332582  0.66665165  0.10417162  1
  He  He26  1  0.33332659  0.66665317  0.18750983  1
  He  He27  1  0.33332612  0.66665224  0.27083561  1
  He  He28  1  0.33332570  0.66665140  0.35416070  1
  He  He29  1  0.33332562  0.66665124  0.43749519  1
  He  He30  1  -0.00000006  -0.00000012  0.52083390  1
  He  He31  1  0.99999979  0.99999957  0.60416896  1
  He  He32  1  0.33332589  0.66665178  0.68750552  1
  He  He33  1  0.33332554  0.66665109  0.77082759  1
  He  He34  1  0.00000000  0.00000001  0.85416363  1
  He  He35  1  0.99999980  0.99999961  0.93749681  1
