# generated using pymatgen
data_H2He4Li
_symmetry_space_group_name_H-M   'P 1'
_cell_length_a   8.28541066
_cell_length_b   8.28541066
_cell_length_c   8.28541066
_cell_angle_alpha   60.00000000
_cell_angle_beta   60.00000000
_cell_angle_gamma   60.00000000
_symmetry_Int_Tables_number   1
_chemical_formula_structural   H2He4Li
_chemical_formula_sum   'H4 He8 Li2'
_cell_volume   402.18615771
_cell_formula_units_Z   2
loop_
 _symmetry_equiv_pos_site_id
 _symmetry_equiv_pos_as_xyz
  1  'x, y, z'
loop_
 _atom_site_type_symbol
 _atom_site_label
 _atom_site_symmetry_multiplicity
 _atom_site_fract_x
 _atom_site_fract_y
 _atom_site_fract_z
 _atom_site_occupancy
  H  H0  1  0.00000000  0.00000000  0.00000000  1
  H  H1  1  0.50000000  -0.00000000  0.50000000  1
  H  H2  1  0.00000000  0.50000000  0.50000000  1
  H  H3  1  -0.00000000  0.00000000  0.50000000  1
  He  He4  1  0.24409764  0.24409764  0.26770707  1
  He  He5  1  0.76770707  0.24409764  0.74409764  1
  He  He6  1  0.24409764  0.76770707  0.74409764  1
  He  He7  1  0.24409764  0.24409764  0.74409764  1
  He  He8  1  0.23229293  0.75590236  0.25590236  1
  He  He9  1  0.75590236  0.75590236  0.73229293  1
  He  He10  1  0.75590236  0.23229293  0.25590236  1
  He  He11  1  0.75590236  0.75590236  0.25590236  1
  Li  Li12  1  0.37500000  0.37500000  0.87500000  1
  Li  Li13  1  0.62500000  0.62500000  0.12500000  1
