# generated using pymatgen
data_H2He7Li2Be
_symmetry_space_group_name_H-M   'P 1'
_cell_length_a   7.88659887
_cell_length_b   7.88659887
_cell_length_c   11.52309239
_cell_angle_alpha   90.00000000
_cell_angle_beta   90.00000000
_cell_angle_gamma   90.00000000
_symmetry_Int_Tables_number   1
_chemical_formula_structural   H2He7Li2Be
_chemical_formula_sum   'H8 He28 Li8 Be4'
_cell_volume   716.71839059
_cell_formula_units_Z   4
loop_
 _symmetry_equiv_pos_site_id
 _symmetry_equiv_pos_as_xyz
  1  'x, y, z'
loop_
 _atom_site_type_symbol
 _atom_site_label
 _atom_site_symmetry_multiplicity
 _atom_site_fract_x
 _atom_site_fract_y
 _atom_site_fract_z
 _atom_site_occupancy
  H  H0  1  0.81483569  0.18516431  0.50000000  1
  H  H1  1  0.18516431  0.81483569  0.50000000  1
  H  H2  1  0.31483569  0.31483569  -0.00000000  1
  H  H3  1  0.68516431  0.68516431  0.00000000  1
  H  H4  1  0.84867265  0.15132735  -0.00000000  1
  H  H5  1  0.15132735  0.84867265  -0.00000000  1
  H  H6  1  0.34867265  0.34867265  0.50000000  1
  H  H7  1  0.65132735  0.65132735  0.50000000  1
  He  He8  1  -0.00000000  -0.00000000  0.33308920  1
  He  He9  1  0.50000000  0.50000000  0.83308920  1
  He  He10  1  0.50000000  0.50000000  0.16691080  1
  He  He11  1  0.00000000  0.00000000  0.66691080  1
  He  He12  1  0.13532416  0.13532416  0.15017853  1
  He  He13  1  0.86467584  0.86467584  0.15017853  1
  He  He14  1  0.36467584  0.63532416  0.65017853  1
  He  He15  1  0.63532416  0.36467584  0.65017853  1
  He  He16  1  0.36467584  0.63532416  0.34982147  1
  He  He17  1  0.63532416  0.36467584  0.34982147  1
  He  He18  1  0.13532416  0.13532416  0.84982147  1
  He  He19  1  0.86467584  0.86467584  0.84982147  1
  He  He20  1  0.30576751  0.07939979  0.33794666  1
  He  He21  1  0.69423249  0.92060021  0.33794666  1
  He  He22  1  0.42060021  0.80576751  0.83794666  1
  He  He23  1  0.57939979  0.19423249  0.83794666  1
  He  He24  1  0.19423249  0.57939979  0.16205334  1
  He  He25  1  0.80576751  0.42060021  0.16205334  1
  He  He26  1  0.07939979  0.30576751  0.66205334  1
  He  He27  1  0.92060021  0.69423249  0.66205334  1
  He  He28  1  0.69423249  0.92060021  0.66205334  1
  He  He29  1  0.30576751  0.07939979  0.66205334  1
  He  He30  1  0.57939979  0.19423249  0.16205334  1
  He  He31  1  0.42060021  0.80576751  0.16205334  1
  He  He32  1  0.80576751  0.42060021  0.83794666  1
  He  He33  1  0.19423249  0.57939979  0.83794666  1
  He  He34  1  0.92060021  0.69423249  0.33794666  1
  He  He35  1  0.07939979  0.30576751  0.33794666  1
  Li  Li36  1  0.13752810  0.13752810  0.28077458  1
  Li  Li37  1  0.86247190  0.86247190  0.28077458  1
  Li  Li38  1  0.36247190  0.63752810  0.78077458  1
  Li  Li39  1  0.63752810  0.36247190  0.78077458  1
  Li  Li40  1  0.36247190  0.63752810  0.21922542  1
  Li  Li41  1  0.63752810  0.36247190  0.21922542  1
  Li  Li42  1  0.13752810  0.13752810  0.71922542  1
  Li  Li43  1  0.86247190  0.86247190  0.71922542  1
  Be  Be44  1  0.50000000  0.00000000  0.25000000  1
  Be  Be45  1  0.50000000  -0.00000000  0.75000000  1
  Be  Be46  1  0.00000000  0.50000000  0.25000000  1
  Be  Be47  1  0.00000000  0.50000000  0.75000000  1
