# generated using pymatgen
data_H3He
_symmetry_space_group_name_H-M   'P 1'
_cell_length_a   10.08301816
_cell_length_b   10.08301816
_cell_length_c   5.54001459
_cell_angle_alpha   90.00000000
_cell_angle_beta   90.00000000
_cell_angle_gamma   90.00000000
_symmetry_Int_Tables_number   1
_chemical_formula_structural   H3He
_chemical_formula_sum   'H24 He8'
_cell_volume   563.23807760
_cell_formula_units_Z   8
loop_
 _symmetry_equiv_pos_site_id
 _symmetry_equiv_pos_as_xyz
  1  'x, y, z'
loop_
 _atom_site_type_symbol
 _atom_site_label
 _atom_site_symmetry_multiplicity
 _atom_site_fract_x
 _atom_site_fract_y
 _atom_site_fract_z
 _atom_site_occupancy
  H  H0  1  0.11756561  0.10149113  0.84534600  1
  H  H1  1  0.88243439  0.89850887  0.84534600  1
  H  H2  1  0.10149113  0.88243439  0.15465400  1
  H  H3  1  0.89850887  0.11756561  0.15465400  1
  H  H4  1  0.38243439  0.60149113  0.65465400  1
  H  H5  1  0.61756561  0.39850887  0.65465400  1
  H  H6  1  0.39850887  0.38243439  0.34534600  1
  H  H7  1  0.60149113  0.61756561  0.34534600  1
  H  H8  1  0.33642703  0.94697075  0.89598878  1
  H  H9  1  0.66357297  0.05302925  0.89598878  1
  H  H10  1  0.94697075  0.66357297  0.10401122  1
  H  H11  1  0.05302925  0.33642703  0.10401122  1
  H  H12  1  0.16357297  0.44697075  0.60401122  1
  H  H13  1  0.83642703  0.55302925  0.60401122  1
  H  H14  1  0.55302925  0.16357297  0.39598878  1
  H  H15  1  0.44697075  0.83642703  0.39598878  1
  H  H16  1  0.24059410  0.09495924  0.30621113  1
  H  H17  1  0.75940590  0.90504076  0.30621113  1
  H  H18  1  0.09495924  0.75940590  0.69378887  1
  H  H19  1  0.90504076  0.24059410  0.69378887  1
  H  H20  1  0.25940590  0.59495924  0.19378887  1
  H  H21  1  0.74059410  0.40504076  0.19378887  1
  H  H22  1  0.40504076  0.25940590  0.80621113  1
  H  H23  1  0.59495924  0.74059410  0.80621113  1
  He  He24  1  0.22162839  0.01077353  0.06106522  1
  He  He25  1  0.77837161  0.98922647  0.06106522  1
  He  He26  1  0.01077353  0.77837161  0.93893478  1
  He  He27  1  0.98922647  0.22162839  0.93893478  1
  He  He28  1  0.27837161  0.51077353  0.43893478  1
  He  He29  1  0.72162839  0.48922647  0.43893478  1
  He  He30  1  0.48922647  0.27837161  0.56106522  1
  He  He31  1  0.51077353  0.72162839  0.56106522  1
