# generated using pymatgen
data_HHeLi4
_symmetry_space_group_name_H-M   'P 1'
_cell_length_a   6.27282590
_cell_length_b   6.27282590
_cell_length_c   6.27282590
_cell_angle_alpha   105.78528127
_cell_angle_beta   105.78528127
_cell_angle_gamma   117.12503864
_symmetry_Int_Tables_number   1
_chemical_formula_structural   HHeLi4
_chemical_formula_sum   'H2 He2 Li8'
_cell_volume   187.43133383
_cell_formula_units_Z   2
loop_
 _symmetry_equiv_pos_site_id
 _symmetry_equiv_pos_as_xyz
  1  'x, y, z'
loop_
 _atom_site_type_symbol
 _atom_site_label
 _atom_site_symmetry_multiplicity
 _atom_site_fract_x
 _atom_site_fract_y
 _atom_site_fract_z
 _atom_site_occupancy
  H  H0  1  0.50000000  0.50000000  0.00000000  1
  H  H1  1  0.25000000  0.75000000  0.50000000  1
  He  He2  1  0.00000000  0.00000000  -0.00000000  1
  He  He3  1  0.75000000  0.25000000  0.50000000  1
  Li  Li4  1  0.65528591  0.83082219  0.17553628  1
  Li  Li5  1  0.65528591  0.47974963  0.82446372  1
  Li  Li6  1  0.22974963  0.90528591  0.32446372  1
  Li  Li7  1  0.58082219  0.90528591  0.67553628  1
  Li  Li8  1  0.09471409  0.77025037  0.67553628  1
  Li  Li9  1  0.09471409  0.41917781  0.32446372  1
  Li  Li10  1  0.52025037  0.34471409  0.17553628  1
  Li  Li11  1  0.16917781  0.34471409  0.82446372  1
