# generated using pymatgen
data_HHeLi
_symmetry_space_group_name_H-M   'P 1'
_cell_length_a   3.57265830
_cell_length_b   5.80073525
_cell_length_c   6.55574330
_cell_angle_alpha   90.00000000
_cell_angle_beta   90.00000000
_cell_angle_gamma   90.00000000
_symmetry_Int_Tables_number   1
_chemical_formula_structural   HHeLi
_chemical_formula_sum   'H4 He4 Li4'
_cell_volume   135.86151858
_cell_formula_units_Z   4
loop_
 _symmetry_equiv_pos_site_id
 _symmetry_equiv_pos_as_xyz
  1  'x, y, z'
loop_
 _atom_site_type_symbol
 _atom_site_label
 _atom_site_symmetry_multiplicity
 _atom_site_fract_x
 _atom_site_fract_y
 _atom_site_fract_z
 _atom_site_occupancy
  H  H0  1  0.25000000  0.02026107  0.82242574  1
  H  H1  1  0.75000000  0.47973893  0.32242574  1
  H  H2  1  0.75000000  0.97973893  0.17757426  1
  H  H3  1  0.25000000  0.52026107  0.67757426  1
  He  He4  1  0.25000000  0.14965837  0.43739923  1
  He  He5  1  0.75000000  0.35034163  0.93739923  1
  He  He6  1  0.75000000  0.85034163  0.56260077  1
  He  He7  1  0.25000000  0.64965837  0.06260077  1
  Li  Li8  1  0.25000000  0.77326175  0.37927616  1
  Li  Li9  1  0.75000000  0.72673825  0.87927616  1
  Li  Li10  1  0.75000000  0.22673825  0.62072384  1
  Li  Li11  1  0.25000000  0.27326175  0.12072384  1
