# generated using pymatgen
data_H10He25Li6
_symmetry_space_group_name_H-M   'P 1'
_cell_length_a   9.59772571
_cell_length_b   9.59773294
_cell_length_c   6.89791164
_cell_angle_alpha   90.00000000
_cell_angle_beta   90.00000000
_cell_angle_gamma   120.00128858
_symmetry_Int_Tables_number   1
_chemical_formula_structural   H10He25Li6
_chemical_formula_sum   'H10 He25 Li6'
_cell_volume   550.27478767
_cell_formula_units_Z   1
loop_
 _symmetry_equiv_pos_site_id
 _symmetry_equiv_pos_as_xyz
  1  'x, y, z'
loop_
 _atom_site_type_symbol
 _atom_site_label
 _atom_site_symmetry_multiplicity
 _atom_site_fract_x
 _atom_site_fract_y
 _atom_site_fract_z
 _atom_site_occupancy
  H  H0  1  0.33333312  0.66666542  0.74655955  1
  H  H1  1  0.33333312  0.66666542  0.25344045  1
  H  H2  1  0.66666678  0.33333485  0.74387871  1
  H  H3  1  0.66666678  0.33333485  0.25612129  1
  H  H4  1  0.71998427  0.72397798  0.00000000  1
  H  H5  1  0.27602318  0.99600132  0.00000000  1
  H  H6  1  0.00399552  0.28002401  0.00000000  1
  H  H7  1  0.22122217  0.23027695  0.50000000  1
  H  H8  1  0.76972546  0.99094659  0.50000000  1
  H  H9  1  0.00905283  0.77877650  0.50000000  1
  He  He10  1  0.15450627  0.67613637  0.00000000  1
  He  He11  1  0.32385973  0.47836217  0.00000000  1
  He  He12  1  0.52162974  0.84549230  0.00000000  1
  He  He13  1  0.84700772  0.34666857  0.50000000  1
  He  He14  1  0.65333197  0.50034364  0.50000000  1
  He  He15  1  0.49966363  0.15299198  0.50000000  1
  He  He16  1  0.87426685  0.42729768  0.00000000  1
  He  He17  1  0.57269980  0.44697293  0.00000000  1
  He  He18  1  0.55302812  0.12572650  0.00000000  1
  He  He19  1  0.12668070  0.60092834  0.50000000  1
  He  He20  1  0.39907347  0.52575171  0.50000000  1
  He  He21  1  0.47424694  0.87332203  0.50000000  1
  He  He22  1  0.91814806  0.67657205  0.82132645  1
  He  He23  1  0.32342640  0.24157135  0.82132704  1
  He  He24  1  0.75842563  0.08185581  0.82132663  1
  He  He25  1  0.91814806  0.67657205  0.17867355  1
  He  He26  1  0.32342640  0.24157135  0.17867296  1
  He  He27  1  0.75842563  0.08185581  0.17867337  1
  He  He28  1  0.08366047  0.35735396  0.68297474  1
  He  He29  1  0.64265044  0.72631224  0.68297555  1
  He  He30  1  0.27369055  0.91633744  0.68297522  1
  He  He31  1  0.08366047  0.35735396  0.31702526  1
  He  He32  1  0.64265044  0.72631224  0.31702445  1
  He  He33  1  0.27369055  0.91633744  0.31702478  1
  He  He34  1  0.99999948  0.99999659  0.50000000  1
  Li  Li35  1  0.97110503  0.61652431  0.00000000  1
  Li  Li36  1  0.38347329  0.35457745  0.00000000  1
  Li  Li37  1  0.64541950  0.02889470  0.00000000  1
  Li  Li38  1  0.03085430  0.41362151  0.50000000  1
  Li  Li39  1  0.58638142  0.61723696  0.50000000  1
  Li  Li40  1  0.38276573  0.96914466  0.50000000  1
