# generated using pymatgen
data_H6He21Li2
_symmetry_space_group_name_H-M   'P 1'
_cell_length_a   7.47158101
_cell_length_b   7.47158101
_cell_length_c   7.47158101
_cell_angle_alpha   60.00000000
_cell_angle_beta   60.00000000
_cell_angle_gamma   60.00000000
_symmetry_Int_Tables_number   1
_chemical_formula_structural   H6He21Li2
_chemical_formula_sum   'H6 He21 Li2'
_cell_volume   294.93243164
_cell_formula_units_Z   1
loop_
 _symmetry_equiv_pos_site_id
 _symmetry_equiv_pos_as_xyz
  1  'x, y, z'
loop_
 _atom_site_type_symbol
 _atom_site_label
 _atom_site_symmetry_multiplicity
 _atom_site_fract_x
 _atom_site_fract_y
 _atom_site_fract_z
 _atom_site_occupancy
  H  H0  1  0.72237001  0.27762999  0.27762999  1
  H  H1  1  0.27762999  0.72237001  0.72237001  1
  H  H2  1  0.72237001  0.27762999  0.72237001  1
  H  H3  1  0.27762999  0.72237001  0.27762999  1
  H  H4  1  0.72237001  0.72237001  0.27762999  1
  H  H5  1  0.27762999  0.27762999  0.72237001  1
  He  He6  1  0.00000000  -0.00000000  0.00000000  1
  He  He7  1  0.84941003  0.38352999  0.38352999  1
  He  He8  1  0.38352999  0.84941003  0.38352999  1
  He  He9  1  0.38352999  0.38352999  0.84941003  1
  He  He10  1  0.38352999  0.38352999  0.38352999  1
  He  He11  1  0.61647001  0.15058997  0.61647001  1
  He  He12  1  0.15058997  0.61647001  0.61647001  1
  He  He13  1  0.61647001  0.61647001  0.15058997  1
  He  He14  1  0.61647001  0.61647001  0.61647001  1
  He  He15  1  0.65393166  0.00000000  -0.00000000  1
  He  He16  1  -0.00000000  0.65393166  0.34606834  1
  He  He17  1  0.00000000  0.34606834  0.65393166  1
  He  He18  1  0.34606834  0.00000000  -0.00000000  1
  He  He19  1  0.65393166  0.00000000  0.34606834  1
  He  He20  1  -0.00000000  0.34606834  0.00000000  1
  He  He21  1  0.00000000  0.65393166  -0.00000000  1
  He  He22  1  0.34606834  -0.00000000  0.65393166  1
  He  He23  1  0.65393166  0.34606834  -0.00000000  1
  He  He24  1  -0.00000000  0.00000000  0.65393166  1
  He  He25  1  -0.00000000  0.00000000  0.34606834  1
  He  He26  1  0.34606834  0.65393166  0.00000000  1
  Li  Li27  1  0.25000000  0.25000000  0.25000000  1
  Li  Li28  1  0.75000000  0.75000000  0.75000000  1
