# generated using pymatgen
data_H4He
_symmetry_space_group_name_H-M   'P 1'
_cell_length_a   4.35908340
_cell_length_b   4.35908340
_cell_length_c   6.15402309
_cell_angle_alpha   69.75515952
_cell_angle_beta   69.75515952
_cell_angle_gamma   89.81756995
_symmetry_Int_Tables_number   1
_chemical_formula_structural   H4He
_chemical_formula_sum   'H4 He1'
_cell_volume   102.02822709
_cell_formula_units_Z   1
loop_
 _symmetry_equiv_pos_site_id
 _symmetry_equiv_pos_as_xyz
  1  'x, y, z'
loop_
 _atom_site_type_symbol
 _atom_site_label
 _atom_site_symmetry_multiplicity
 _atom_site_fract_x
 _atom_site_fract_y
 _atom_site_fract_z
 _atom_site_occupancy
  H  H0  1  0.39962692  0.39962692  0.22969983  1
  H  H1  1  0.60037308  0.60037308  0.77030017  1
  H  H2  1  0.23708662  0.76291338  0.50000000  1
  H  H3  1  0.76291338  0.23708662  0.50000000  1
  He  He4  1  0.00000000  0.00000000  0.00000000  1
