# generated using pymatgen
data_HHe2Li6Be
_symmetry_space_group_name_H-M   'P 1'
_cell_length_a   6.86996046
_cell_length_b   7.37624660
_cell_length_c   7.56713416
_cell_angle_alpha   73.05737422
_cell_angle_beta   66.86023647
_cell_angle_gamma   63.63838182
_symmetry_Int_Tables_number   1
_chemical_formula_structural   HHe2Li6Be
_chemical_formula_sum   'H2 He4 Li12 Be2'
_cell_volume   312.74560229
_cell_formula_units_Z   2
loop_
 _symmetry_equiv_pos_site_id
 _symmetry_equiv_pos_as_xyz
  1  'x, y, z'
loop_
 _atom_site_type_symbol
 _atom_site_label
 _atom_site_symmetry_multiplicity
 _atom_site_fract_x
 _atom_site_fract_y
 _atom_site_fract_z
 _atom_site_occupancy
  H  H0  1  0.33089934  0.13017716  0.22404966  1
  H  H1  1  0.66910066  0.86982284  0.77595034  1
  He  He2  1  0.15759025  0.35975008  0.78306535  1
  He  He3  1  0.84240975  0.64024992  0.21693465  1
  He  He4  1  0.34061462  0.63659005  0.21761602  1
  He  He5  1  0.65938538  0.36340995  0.78238398  1
  Li  Li6  1  0.03110805  0.11121412  0.17772880  1
  Li  Li7  1  0.96889195  0.88878588  0.82227120  1
  Li  Li8  1  0.14974432  0.46800352  0.26681308  1
  Li  Li9  1  0.85025568  0.53199648  0.73318692  1
  Li  Li10  1  0.20418508  0.06076894  0.56092400  1
  Li  Li11  1  0.79581492  0.93923106  0.43907600  1
  Li  Li12  1  0.54837410  0.80239361  0.13591102  1
  Li  Li13  1  0.45162590  0.19760639  0.86408898  1
  Li  Li14  1  0.65841909  0.17397190  0.17316586  1
  Li  Li15  1  0.34158091  0.82602810  0.82683414  1
  Li  Li16  1  0.68986617  0.30911670  0.41530039  1
  Li  Li17  1  0.31013383  0.69088330  0.58469961  1
  Be  Be18  1  0.79241753  0.13522743  0.30551329  1
  Be  Be19  1  0.20758247  0.86477257  0.69448671  1
