# generated using pymatgen
data_H3HeLi9Be2
_symmetry_space_group_name_H-M   'P 1'
_cell_length_a   5.97541749
_cell_length_b   6.00546903
_cell_length_c   14.96488826
_cell_angle_alpha   90.00000000
_cell_angle_beta   90.00000000
_cell_angle_gamma   119.83460568
_symmetry_Int_Tables_number   1
_chemical_formula_structural   H3HeLi9Be2
_chemical_formula_sum   'H6 He2 Li18 Be4'
_cell_volume   465.84419815
_cell_formula_units_Z   2
loop_
 _symmetry_equiv_pos_site_id
 _symmetry_equiv_pos_as_xyz
  1  'x, y, z'
loop_
 _atom_site_type_symbol
 _atom_site_label
 _atom_site_symmetry_multiplicity
 _atom_site_fract_x
 _atom_site_fract_y
 _atom_site_fract_z
 _atom_site_occupancy
  H  H0  1  0.00236941  0.00473883  0.25000000  1
  H  H1  1  0.99763059  0.99526117  0.75000000  1
  H  H2  1  0.66710461  0.33420923  0.89683067  1
  H  H3  1  0.33289539  0.66579077  0.39683067  1
  H  H4  1  0.33289539  0.66579077  0.10316933  1
  H  H5  1  0.66710461  0.33420923  0.60316933  1
  He  He6  1  0.00000000  -0.00000000  0.00000000  1
  He  He7  1  0.00000000  0.00000000  0.50000000  1
  Li  Li8  1  0.97579036  0.48334408  0.25000000  1
  Li  Li9  1  0.50755372  0.48334408  0.25000000  1
  Li  Li10  1  0.51332582  0.02665163  0.25000000  1
  Li  Li11  1  0.02420964  0.51665592  0.75000000  1
  Li  Li12  1  0.49244628  0.51665592  0.75000000  1
  Li  Li13  1  0.48667418  0.97334837  0.75000000  1
  Li  Li14  1  0.34864674  0.17502512  0.41175087  1
  Li  Li15  1  0.82637838  0.17502512  0.41175087  1
  Li  Li16  1  0.82723521  0.65447043  0.41139521  1
  Li  Li17  1  0.65135326  0.82497488  0.91175087  1
  Li  Li18  1  0.17362162  0.82497488  0.91175087  1
  Li  Li19  1  0.17276479  0.34552957  0.91139521  1
  Li  Li20  1  0.17362162  0.82497488  0.58824913  1
  Li  Li21  1  0.65135326  0.82497488  0.58824913  1
  Li  Li22  1  0.17276479  0.34552957  0.58860479  1
  Li  Li23  1  0.82637838  0.17502512  0.08824913  1
  Li  Li24  1  0.34864674  0.17502512  0.08824913  1
  Li  Li25  1  0.82723521  0.65447043  0.08860479  1
  Be  Be26  1  0.66701780  0.33403560  0.16279460  1
  Be  Be27  1  0.33298220  0.66596440  0.66279460  1
  Be  Be28  1  0.33298220  0.66596440  0.83720540  1
  Be  Be29  1  0.66701780  0.33403560  0.33720540  1
