# generated using pymatgen
data_H5He(LiBe4)3
_symmetry_space_group_name_H-M   'P 1'
_cell_length_a   10.67447069
_cell_length_b   10.67453897
_cell_length_c   7.85029962
_cell_angle_alpha   90.00000000
_cell_angle_beta   90.00000000
_cell_angle_gamma   120.00264538
_symmetry_Int_Tables_number   1
_chemical_formula_structural   H5He(LiBe4)3
_chemical_formula_sum   'H10 He2 Li6 Be24'
_cell_volume   774.64150579
_cell_formula_units_Z   2
loop_
 _symmetry_equiv_pos_site_id
 _symmetry_equiv_pos_as_xyz
  1  'x, y, z'
loop_
 _atom_site_type_symbol
 _atom_site_label
 _atom_site_symmetry_multiplicity
 _atom_site_fract_x
 _atom_site_fract_y
 _atom_site_fract_z
 _atom_site_occupancy
  H  H0  1  0.66666628  0.33333086  0.00161865  1
  H  H1  1  0.33333372  0.66666914  0.50161865  1
  H  H2  1  0.33333372  0.66666914  0.99838135  1
  H  H3  1  0.66666628  0.33333086  0.49838135  1
  H  H4  1  0.00832937  0.75134514  0.25000000  1
  H  H5  1  0.24865204  0.25698790  0.25000000  1
  H  H6  1  0.74300802  0.99167522  0.25000000  1
  H  H7  1  0.99167063  0.24865486  0.75000000  1
  H  H8  1  0.75134796  0.74301210  0.75000000  1
  H  H9  1  0.25699198  0.00832478  0.75000000  1
  He  He10  1  0.00000000  0.00000000  0.00000000  1
  He  He11  1  0.00000000  0.00000000  0.50000000  1
  Li  Li12  1  0.40368900  0.03306454  0.25000000  1
  Li  Li13  1  0.96694430  0.37063531  0.25000000  1
  Li  Li14  1  0.62936942  0.59629140  0.25000000  1
  Li  Li15  1  0.59631100  0.96693546  0.75000000  1
  Li  Li16  1  0.03305570  0.62936469  0.75000000  1
  Li  Li17  1  0.37063058  0.40370860  0.75000000  1
  Be  Be18  1  0.32632290  0.84795045  0.25000000  1
  Be  Be19  1  0.15209887  0.47839442  0.25000000  1
  Be  Be20  1  0.52160914  0.67368959  0.25000000  1
  Be  Be21  1  0.67367710  0.15204955  0.75000000  1
  Be  Be22  1  0.84790113  0.52160558  0.75000000  1
  Be  Be23  1  0.47839086  0.32631041  0.75000000  1
  Be  Be24  1  0.59084418  0.12294058  0.25000000  1
  Be  Be25  1  0.87707898  0.46792607  0.25000000  1
  Be  Be26  1  0.53206629  0.40912854  0.25000000  1
  Be  Be27  1  0.40915582  0.87705942  0.75000000  1
  Be  Be28  1  0.12292102  0.53207393  0.75000000  1
  Be  Be29  1  0.46793371  0.59087146  0.75000000  1
  Be  Be30  1  0.35613054  0.09681460  0.07548156  1
  Be  Be31  1  0.90319113  0.25932281  0.07548473  1
  Be  Be32  1  0.74068011  0.64387337  0.07548435  1
  Be  Be33  1  0.64386946  0.90318540  0.57548156  1
  Be  Be34  1  0.09680887  0.74067719  0.57548473  1
  Be  Be35  1  0.25931989  0.35612663  0.57548435  1
  Be  Be36  1  0.64386946  0.90318540  0.92451844  1
  Be  Be37  1  0.09680887  0.74067719  0.92451527  1
  Be  Be38  1  0.25931989  0.35612663  0.92451565  1
  Be  Be39  1  0.35613054  0.09681460  0.42451844  1
  Be  Be40  1  0.90319113  0.25932281  0.42451527  1
  Be  Be41  1  0.74068011  0.64387337  0.42451565  1
