# generated using pymatgen
data_HHe3
_symmetry_space_group_name_H-M   'P 1'
_cell_length_a   4.54897270
_cell_length_b   5.57718890
_cell_length_c   7.00383937
_cell_angle_alpha   90.00000000
_cell_angle_beta   90.00000000
_cell_angle_gamma   90.00000000
_symmetry_Int_Tables_number   1
_chemical_formula_structural   HHe3
_chemical_formula_sum   'H4 He12'
_cell_volume   177.69076679
_cell_formula_units_Z   4
loop_
 _symmetry_equiv_pos_site_id
 _symmetry_equiv_pos_as_xyz
  1  'x, y, z'
loop_
 _atom_site_type_symbol
 _atom_site_label
 _atom_site_symmetry_multiplicity
 _atom_site_fract_x
 _atom_site_fract_y
 _atom_site_fract_z
 _atom_site_occupancy
  H  H0  1  0.56524781  0.87887505  0.75000000  1
  H  H1  1  0.06524781  0.62112495  0.25000000  1
  H  H2  1  0.43475219  0.12112495  0.25000000  1
  H  H3  1  0.93475219  0.37887505  0.75000000  1
  He  He4  1  0.65873189  0.17797855  0.93936493  1
  He  He5  1  0.15873189  0.32202145  0.06063507  1
  He  He6  1  0.34126811  0.82202145  0.43936493  1
  He  He7  1  0.84126811  0.67797855  0.56063507  1
  He  He8  1  0.34126811  0.82202145  0.06063507  1
  He  He9  1  0.84126811  0.67797855  0.93936493  1
  He  He10  1  0.65873189  0.17797855  0.56063507  1
  He  He11  1  0.15873189  0.32202145  0.43936493  1
  He  He12  1  0.14539338  0.03314437  0.75000000  1
  He  He13  1  0.64539338  0.46685563  0.25000000  1
  He  He14  1  0.85460662  0.96685563  0.25000000  1
  He  He15  1  0.35460662  0.53314437  0.75000000  1
