# generated using pymatgen
data_HHe9Li3Be
_symmetry_space_group_name_H-M   'P 1'
_cell_length_a   6.74336652
_cell_length_b   6.74336743
_cell_length_c   9.92413380
_cell_angle_alpha   90.00000539
_cell_angle_beta   89.99998112
_cell_angle_gamma   120.00049720
_symmetry_Int_Tables_number   1
_chemical_formula_structural   HHe9Li3Be
_chemical_formula_sum   'H2 He18 Li6 Be2'
_cell_volume   390.81808818
_cell_formula_units_Z   2
loop_
 _symmetry_equiv_pos_site_id
 _symmetry_equiv_pos_as_xyz
  1  'x, y, z'
loop_
 _atom_site_type_symbol
 _atom_site_label
 _atom_site_symmetry_multiplicity
 _atom_site_fract_x
 _atom_site_fract_y
 _atom_site_fract_z
 _atom_site_occupancy
  H  H0  1  0.66666599  0.33333402  0.00000001  1
  H  H1  1  0.66666600  0.33333402  0.50000001  1
  He  He2  1  0.25339801  0.19268953  0.25000001  1
  He  He3  1  0.80731087  0.06070665  0.25000001  1
  He  He4  1  0.93928968  0.74660118  0.25000000  1
  He  He5  1  0.80731046  0.74660200  0.74999999  1
  He  He6  1  0.93929336  0.19268916  0.75000000  1
  He  He7  1  0.25339882  0.06071033  0.75000000  1
  He  He8  1  0.34178051  0.91360406  0.11349276  1
  He  He9  1  0.08639531  0.42817515  0.11349277  1
  He  He10  1  0.57182228  0.65821876  0.11349300  1
  He  He11  1  0.34178050  0.91360399  0.38650725  1
  He  He12  1  0.08639538  0.42817520  0.38650726  1
  He  He13  1  0.57182222  0.65821876  0.38650702  1
  He  He14  1  0.08639602  0.65821951  0.61349274  1
  He  He15  1  0.57182481  0.91360462  0.61349274  1
  He  He16  1  0.34178124  0.42817776  0.61349298  1
  He  He17  1  0.08639594  0.65821949  0.88650724  1
  He  He18  1  0.57182486  0.91360468  0.88650723  1
  He  He19  1  0.34178126  0.42817774  0.88650699  1
  Li  Li20  1  0.21783220  0.93026710  0.25000002  1
  Li  Li21  1  0.06973271  0.28756479  0.25000001  1
  Li  Li22  1  0.71243369  0.78216633  0.25000002  1
  Li  Li23  1  0.06973291  0.78216781  0.74999998  1
  Li  Li24  1  0.71243522  0.93026730  0.74999999  1
  Li  Li25  1  0.21783368  0.28756632  0.74999998  1
  Be  Be26  1  0.33333311  0.66666683  0.00000002  1
  Be  Be27  1  0.33333295  0.66666691  0.49999998  1
