# generated using pymatgen
data_H2He
_symmetry_space_group_name_H-M   'P 1'
_cell_length_a   4.07162133
_cell_length_b   7.45626473
_cell_length_c   10.09342519
_cell_angle_alpha   90.00000000
_cell_angle_beta   90.00000000
_cell_angle_gamma   90.00000000
_symmetry_Int_Tables_number   1
_chemical_formula_structural   H2He
_chemical_formula_sum   'H8 He4'
_cell_volume   306.42716895
_cell_formula_units_Z   4
loop_
 _symmetry_equiv_pos_site_id
 _symmetry_equiv_pos_as_xyz
  1  'x, y, z'
loop_
 _atom_site_type_symbol
 _atom_site_label
 _atom_site_symmetry_multiplicity
 _atom_site_fract_x
 _atom_site_fract_y
 _atom_site_fract_z
 _atom_site_occupancy
  H  H0  1  0.25000000  0.89263145  0.34257687  1
  H  H1  1  0.75000000  0.60736855  0.84257687  1
  H  H2  1  0.75000000  0.10736855  0.65742313  1
  H  H3  1  0.25000000  0.39263145  0.15742313  1
  H  H4  1  0.25000000  0.89985578  0.95852113  1
  H  H5  1  0.75000000  0.60014422  0.45852113  1
  H  H6  1  0.75000000  0.10014422  0.04147887  1
  H  H7  1  0.25000000  0.39985578  0.54147887  1
  He  He8  1  0.25000000  0.29810166  0.84622882  1
  He  He9  1  0.75000000  0.20189834  0.34622882  1
  He  He10  1  0.75000000  0.70189834  0.15377118  1
  He  He11  1  0.25000000  0.79810166  0.65377118  1
