# generated using pymatgen
data_H2He2Li5
_symmetry_space_group_name_H-M   'P 1'
_cell_length_a   5.54018095
_cell_length_b   5.65747050
_cell_length_c   14.85924845
_cell_angle_alpha   90.00000000
_cell_angle_beta   90.00000000
_cell_angle_gamma   90.00000000
_symmetry_Int_Tables_number   1
_chemical_formula_structural   H2He2Li5
_chemical_formula_sum   'H8 He8 Li20'
_cell_volume   465.73952085
_cell_formula_units_Z   4
loop_
 _symmetry_equiv_pos_site_id
 _symmetry_equiv_pos_as_xyz
  1  'x, y, z'
loop_
 _atom_site_type_symbol
 _atom_site_label
 _atom_site_symmetry_multiplicity
 _atom_site_fract_x
 _atom_site_fract_y
 _atom_site_fract_z
 _atom_site_occupancy
  H  H0  1  0.53435105  0.02082167  0.10956242  1
  H  H1  1  0.96564895  0.52082167  0.89043758  1
  H  H2  1  0.46564895  0.97917833  0.60956242  1
  H  H3  1  0.03435105  0.47917833  0.39043758  1
  H  H4  1  0.46564895  0.97917833  0.89043758  1
  H  H5  1  0.03435105  0.47917833  0.10956242  1
  H  H6  1  0.53435105  0.02082167  0.39043758  1
  H  H7  1  0.96564895  0.52082167  0.60956242  1
  He  He8  1  -0.00000000  0.00000000  0.00000000  1
  He  He9  1  0.50000000  0.50000000  0.00000000  1
  He  He10  1  -0.00000000  0.00000000  0.50000000  1
  He  He11  1  0.50000000  0.50000000  0.50000000  1
  He  He12  1  0.05200620  0.93755808  0.25000000  1
  He  He13  1  0.44799380  0.43755808  0.75000000  1
  He  He14  1  0.94799380  0.06244192  0.75000000  1
  He  He15  1  0.55200620  0.56244192  0.25000000  1
  Li  Li16  1  0.72053388  0.22041691  0.98019987  1
  Li  Li17  1  0.77946612  0.72041691  0.01980013  1
  Li  Li18  1  0.27946612  0.77958309  0.48019987  1
  Li  Li19  1  0.22053388  0.27958309  0.51980013  1
  Li  Li20  1  0.27946612  0.77958309  0.01980013  1
  Li  Li21  1  0.22053388  0.27958309  0.98019987  1
  Li  Li22  1  0.72053388  0.22041691  0.51980013  1
  Li  Li23  1  0.77946612  0.72041691  0.48019987  1
  Li  Li24  1  0.96429356  0.08257349  0.14126013  1
  Li  Li25  1  0.53570644  0.58257349  0.85873987  1
  Li  Li26  1  0.03570644  0.91742651  0.64126013  1
  Li  Li27  1  0.46429356  0.41742651  0.35873987  1
  Li  Li28  1  0.03570644  0.91742651  0.85873987  1
  Li  Li29  1  0.46429356  0.41742651  0.14126013  1
  Li  Li30  1  0.96429356  0.08257349  0.35873987  1
  Li  Li31  1  0.53570644  0.58257349  0.64126013  1
  Li  Li32  1  0.40006789  0.87354069  0.25000000  1
  Li  Li33  1  0.09993211  0.37354069  0.75000000  1
  Li  Li34  1  0.59993211  0.12645931  0.75000000  1
  Li  Li35  1  0.90006789  0.62645931  0.25000000  1
