# generated using pymatgen
data_HHeLi
_symmetry_space_group_name_H-M   'P 1'
_cell_length_a   4.68220397
_cell_length_b   7.40123266
_cell_length_c   7.97848881
_cell_angle_alpha   90.00000000
_cell_angle_beta   90.00000000
_cell_angle_gamma   90.00000000
_symmetry_Int_Tables_number   1
_chemical_formula_structural   HHeLi
_chemical_formula_sum   'H4 He4 Li4'
_cell_volume   276.48719717
_cell_formula_units_Z   4
loop_
 _symmetry_equiv_pos_site_id
 _symmetry_equiv_pos_as_xyz
  1  'x, y, z'
loop_
 _atom_site_type_symbol
 _atom_site_label
 _atom_site_symmetry_multiplicity
 _atom_site_fract_x
 _atom_site_fract_y
 _atom_site_fract_z
 _atom_site_occupancy
  H  H0  1  0.25000000  0.18416733  0.92136473  1
  H  H1  1  0.75000000  0.31583267  0.42136473  1
  H  H2  1  0.75000000  0.81583267  0.07863527  1
  H  H3  1  0.25000000  0.68416733  0.57863527  1
  He  He4  1  0.25000000  0.29822868  0.59279031  1
  He  He5  1  0.75000000  0.20177132  0.09279031  1
  He  He6  1  0.75000000  0.70177132  0.40720969  1
  He  He7  1  0.25000000  0.79822868  0.90720969  1
  Li  Li8  1  0.25000000  0.99561462  0.29451077  1
  Li  Li9  1  0.75000000  0.50438538  0.79451077  1
  Li  Li10  1  0.75000000  0.00438538  0.70548923  1
  Li  Li11  1  0.25000000  0.49561462  0.20548923  1
