# generated using pymatgen
data_H8He3Li
_symmetry_space_group_name_H-M   'P 1'
_cell_length_a   10.00399686
_cell_length_b   10.00399686
_cell_length_c   10.00399686
_cell_angle_alpha   109.47122063
_cell_angle_beta   109.47122063
_cell_angle_gamma   109.47122063
_symmetry_Int_Tables_number   1
_chemical_formula_structural   H8He3Li
_chemical_formula_sum   'H32 He12 Li4'
_cell_volume   770.72376277
_cell_formula_units_Z   4
loop_
 _symmetry_equiv_pos_site_id
 _symmetry_equiv_pos_as_xyz
  1  'x, y, z'
loop_
 _atom_site_type_symbol
 _atom_site_label
 _atom_site_symmetry_multiplicity
 _atom_site_fract_x
 _atom_site_fract_y
 _atom_site_fract_z
 _atom_site_occupancy
  H  H0  1  0.42523202  0.26220867  0.96659860  1
  H  H1  1  0.07476798  0.04136658  0.83697664  1
  H  H2  1  0.79561007  0.45863342  0.53340140  1
  H  H3  1  0.70438993  0.23779133  0.66302336  1
  H  H4  1  0.16302336  0.70438993  0.73779133  1
  H  H5  1  0.03340140  0.79561007  0.95863342  1
  H  H6  1  0.33697664  0.07476798  0.54136658  1
  H  H7  1  0.46659860  0.42523202  0.76220867  1
  H  H8  1  0.45863342  0.03340140  0.29561007  1
  H  H9  1  0.23779133  0.16302336  0.20438993  1
  H  H10  1  0.26220867  0.46659860  0.92523202  1
  H  H11  1  0.04136658  0.33697664  0.57476798  1
  H  H12  1  0.57476798  0.73779133  0.03340140  1
  H  H13  1  0.92523202  0.95863342  0.16302336  1
  H  H14  1  0.20438993  0.54136658  0.46659860  1
  H  H15  1  0.29561007  0.76220867  0.33697664  1
  H  H16  1  0.83697664  0.29561007  0.26220867  1
  H  H17  1  0.96659860  0.20438993  0.04136658  1
  H  H18  1  0.66302336  0.92523202  0.45863342  1
  H  H19  1  0.53340140  0.57476798  0.23779133  1
  H  H20  1  0.54136658  0.96659860  0.70438993  1
  H  H21  1  0.76220867  0.83697664  0.79561007  1
  H  H22  1  0.73779133  0.53340140  0.07476798  1
  H  H23  1  0.95863342  0.66302336  0.42523202  1
  H  H24  1  0.66762784  -0.00000000  -0.00000000  1
  H  H25  1  0.83237216  0.83237216  0.33237216  1
  H  H26  1  0.50000000  0.66762784  0.50000000  1
  H  H27  1  -0.00000000  0.50000000  0.16762784  1
  H  H28  1  0.33237216  0.00000000  0.00000000  1
  H  H29  1  0.16762784  0.16762784  0.66762784  1
  H  H30  1  0.50000000  0.33237216  0.50000000  1
  H  H31  1  0.00000000  0.50000000  0.83237216  1
  He  He32  1  0.79908272  0.25000000  0.04908272  1
  He  He33  1  0.70091728  0.75000000  0.45091728  1
  He  He34  1  0.54908272  0.79908272  0.75000000  1
  He  He35  1  0.95091728  0.70091728  0.25000000  1
  He  He36  1  0.75000000  0.95091728  0.20091728  1
  He  He37  1  0.25000000  0.54908272  0.29908272  1
  He  He38  1  0.20091728  0.75000000  0.95091728  1
  He  He39  1  0.29908272  0.25000000  0.54908272  1
  He  He40  1  0.45091728  0.20091728  0.25000000  1
  He  He41  1  0.04908272  0.29908272  0.75000000  1
  He  He42  1  0.25000000  0.04908272  0.79908272  1
  He  He43  1  0.75000000  0.45091728  0.70091728  1
  Li  Li44  1  0.00000000  0.00000000  -0.00000000  1
  Li  Li45  1  0.50000000  0.50000000  0.00000000  1
  Li  Li46  1  0.50000000  0.00000000  0.50000000  1
  Li  Li47  1  0.00000000  0.50000000  0.50000000  1
