# generated using pymatgen
data_H2He2Li5Be
_symmetry_space_group_name_H-M   'P 1'
_cell_length_a   9.07235359
_cell_length_b   4.54289093
_cell_length_c   12.75445995
_cell_angle_alpha   80.60078093
_cell_angle_beta   90.00000000
_cell_angle_gamma   90.00000000
_symmetry_Int_Tables_number   1
_chemical_formula_structural   H2He2Li5Be
_chemical_formula_sum   'H8 He8 Li20 Be4'
_cell_volume   518.61394378
_cell_formula_units_Z   4
loop_
 _symmetry_equiv_pos_site_id
 _symmetry_equiv_pos_as_xyz
  1  'x, y, z'
loop_
 _atom_site_type_symbol
 _atom_site_label
 _atom_site_symmetry_multiplicity
 _atom_site_fract_x
 _atom_site_fract_y
 _atom_site_fract_z
 _atom_site_occupancy
  H  H0  1  0.11238208  0.85854734  0.16910774  1
  H  H1  1  0.61238208  0.14145266  0.83089226  1
  H  H2  1  0.98744791  0.61073618  0.18145820  1
  H  H3  1  0.48744791  0.38926382  0.81854180  1
  H  H4  1  0.02797027  0.15774927  0.30750386  1
  H  H5  1  0.52797027  0.84225073  0.69249614  1
  H  H6  1  0.92797537  0.09486623  0.21697385  1
  H  H7  1  0.42797537  0.90513377  0.78302615  1
  He  He8  1  0.73850962  0.47300264  0.01530689  1
  He  He9  1  0.23850962  0.52699736  0.98469311  1
  He  He10  1  0.98594597  0.52875677  0.50277212  1
  He  He11  1  0.48594597  0.47124323  0.49722788  1
  He  He12  1  0.62221299  0.57360842  0.26849968  1
  He  He13  1  0.12221299  0.42639158  0.73150032  1
  He  He14  1  0.81093017  0.00788772  0.69134333  1
  He  He15  1  0.31093017  0.99211228  0.30865667  1
  Li  Li16  1  0.72262203  0.75256342  0.00989960  1
  Li  Li17  1  0.22262203  0.24743658  0.99010040  1
  Li  Li18  1  0.86613446  0.39584182  0.98916894  1
  Li  Li19  1  0.36613446  0.60415818  0.01083106  1
  Li  Li20  1  0.00717990  0.25334343  0.50429079  1
  Li  Li21  1  0.50717990  0.74665657  0.49570921  1
  Li  Li22  1  0.86039030  0.61998331  0.46586857  1
  Li  Li23  1  0.36039030  0.38001669  0.53413143  1
  Li  Li24  1  0.54366190  0.50922321  0.19386345  1
  Li  Li25  1  0.04366190  0.49077679  0.80613655  1
  Li  Li26  1  0.65180147  0.85056957  0.26176741  1
  Li  Li27  1  0.15180147  0.14943043  0.73823259  1
  Li  Li28  1  0.78366399  0.01163791  0.78903546  1
  Li  Li29  1  0.28366399  0.98836209  0.21096454  1
  Li  Li30  1  0.69728964  0.02491737  0.63212604  1
  Li  Li31  1  0.19728964  0.97508263  0.36787396  1
  Li  Li32  1  0.01509388  0.80681436  0.14041449  1
  Li  Li33  1  0.51509388  0.19318564  0.85958551  1
  Li  Li34  1  0.93537099  0.23031462  0.27024533  1
  Li  Li35  1  0.43537099  0.76968538  0.72975467  1
  Be  Be36  1  0.99967397  0.93363018  0.92789931  1
  Be  Be37  1  0.49967397  0.06636982  0.07210069  1
  Be  Be38  1  0.72422311  0.12060104  0.42366346  1
  Be  Be39  1  0.22422311  0.87939896  0.57633654  1
