# generated using pymatgen
data_H10He8Li
_symmetry_space_group_name_H-M   'P 1'
_cell_length_a   6.47840564
_cell_length_b   9.35743116
_cell_length_c   12.72471915
_cell_angle_alpha   90.00000000
_cell_angle_beta   90.00000000
_cell_angle_gamma   90.00000000
_symmetry_Int_Tables_number   1
_chemical_formula_structural   H10He8Li
_chemical_formula_sum   'H40 He32 Li4'
_cell_volume   771.38818697
_cell_formula_units_Z   4
loop_
 _symmetry_equiv_pos_site_id
 _symmetry_equiv_pos_as_xyz
  1  'x, y, z'
loop_
 _atom_site_type_symbol
 _atom_site_label
 _atom_site_symmetry_multiplicity
 _atom_site_fract_x
 _atom_site_fract_y
 _atom_site_fract_z
 _atom_site_occupancy
  H  H0  1  0.57643718  0.83120504  0.50915272  1
  H  H1  1  0.92356282  0.33120504  0.49084728  1
  H  H2  1  0.42356282  0.16879496  0.00915272  1
  H  H3  1  0.07643718  0.66879496  0.99084728  1
  H  H4  1  0.42356282  0.16879496  0.49084728  1
  H  H5  1  0.07643718  0.66879496  0.50915272  1
  H  H6  1  0.57643718  0.83120504  0.99084728  1
  H  H7  1  0.92356282  0.33120504  0.00915272  1
  H  H8  1  0.62879860  0.79483635  0.35729659  1
  H  H9  1  0.87120140  0.29483635  0.64270341  1
  H  H10  1  0.37120140  0.20516365  0.85729659  1
  H  H11  1  0.12879860  0.70516365  0.14270341  1
  H  H12  1  0.37120140  0.20516365  0.64270341  1
  H  H13  1  0.12879860  0.70516365  0.35729659  1
  H  H14  1  0.62879860  0.79483635  0.14270341  1
  H  H15  1  0.87120140  0.29483635  0.85729659  1
  H  H16  1  0.76133220  0.92784874  0.40050312  1
  H  H17  1  0.73866780  0.42784874  0.59949688  1
  H  H18  1  0.23866780  0.07215126  0.90050312  1
  H  H19  1  0.26133220  0.57215126  0.09949688  1
  H  H20  1  0.23866780  0.07215126  0.59949688  1
  H  H21  1  0.26133220  0.57215126  0.40050312  1
  H  H22  1  0.76133220  0.92784874  0.09949688  1
  H  H23  1  0.73866780  0.42784874  0.90050312  1
  H  H24  1  0.57605991  0.86166636  0.64596352  1
  H  H25  1  0.92394009  0.36166636  0.35403648  1
  H  H26  1  0.42394009  0.13833364  0.14596352  1
  H  H27  1  0.07605991  0.63833364  0.85403648  1
  H  H28  1  0.42394009  0.13833364  0.35403648  1
  H  H29  1  0.07605991  0.63833364  0.64596352  1
  H  H30  1  0.57605991  0.86166636  0.85403648  1
  H  H31  1  0.92394009  0.36166636  0.14596352  1
  H  H32  1  0.52383710  0.69823370  0.60624887  1
  H  H33  1  0.97616290  0.19823370  0.39375113  1
  H  H34  1  0.47616290  0.30176630  0.10624887  1
  H  H35  1  0.02383710  0.80176630  0.89375113  1
  H  H36  1  0.47616290  0.30176630  0.39375113  1
  H  H37  1  0.02383710  0.80176630  0.60624887  1
  H  H38  1  0.52383710  0.69823370  0.89375113  1
  H  H39  1  0.97616290  0.19823370  0.10624887  1
  He  He40  1  0.62707732  0.69031355  0.25000000  1
  He  He41  1  0.87292268  0.19031355  0.75000000  1
  He  He42  1  0.37292268  0.30968645  0.75000000  1
  He  He43  1  0.12707732  0.80968645  0.25000000  1
  He  He44  1  0.82923675  0.42966305  0.25000000  1
  He  He45  1  0.67076325  0.92966305  0.75000000  1
  He  He46  1  0.17076325  0.57033695  0.75000000  1
  He  He47  1  0.32923675  0.07033695  0.25000000  1
  He  He48  1  0.47260996  0.46597583  0.35983346  1
  He  He49  1  0.02739004  0.96597583  0.64016654  1
  He  He50  1  0.52739004  0.53402417  0.85983346  1
  He  He51  1  0.97260996  0.03402417  0.14016654  1
  He  He52  1  0.52739004  0.53402417  0.64016654  1
  He  He53  1  0.97260996  0.03402417  0.35983346  1
  He  He54  1  0.47260996  0.46597583  0.14016654  1
  He  He55  1  0.02739004  0.96597583  0.85983346  1
  He  He56  1  0.63589680  0.86917786  0.41357578  1
  He  He57  1  0.86410320  0.36917786  0.58642422  1
  He  He58  1  0.36410320  0.13082214  0.91357578  1
  He  He59  1  0.13589680  0.63082214  0.08642422  1
  He  He60  1  0.36410320  0.13082214  0.58642422  1
  He  He61  1  0.13589680  0.63082214  0.41357578  1
  He  He62  1  0.63589680  0.86917786  0.08642422  1
  He  He63  1  0.86410320  0.36917786  0.91357578  1
  He  He64  1  0.50950211  0.80363656  0.58737754  1
  He  He65  1  0.99049789  0.30363656  0.41262246  1
  He  He66  1  0.49049789  0.19636344  0.08737754  1
  He  He67  1  0.00950211  0.69636344  0.91262246  1
  He  He68  1  0.49049789  0.19636344  0.41262246  1
  He  He69  1  0.00950211  0.69636344  0.58737754  1
  He  He70  1  0.50950211  0.80363656  0.91262246  1
  He  He71  1  0.99049789  0.30363656  0.08737754  1
  Li  Li72  1  0.59910811  0.51328423  0.25000000  1
  Li  Li73  1  0.90089189  0.01328423  0.75000000  1
  Li  Li74  1  0.40089189  0.48671577  0.75000000  1
  Li  Li75  1  0.09910811  0.98671577  0.25000000  1
