# generated using pymatgen
data_H3HeLiBe
_symmetry_space_group_name_H-M   'P 1'
_cell_length_a   5.28840229
_cell_length_b   6.11249160
_cell_length_c   8.90151835
_cell_angle_alpha   63.04612461
_cell_angle_beta   90.00000000
_cell_angle_gamma   90.00000000
_symmetry_Int_Tables_number   1
_chemical_formula_structural   H3HeLiBe
_chemical_formula_sum   'H6 He2 Li2 Be2'
_cell_volume   256.48720099
_cell_formula_units_Z   2
loop_
 _symmetry_equiv_pos_site_id
 _symmetry_equiv_pos_as_xyz
  1  'x, y, z'
loop_
 _atom_site_type_symbol
 _atom_site_label
 _atom_site_symmetry_multiplicity
 _atom_site_fract_x
 _atom_site_fract_y
 _atom_site_fract_z
 _atom_site_occupancy
  H  H0  1  0.76329077  0.03740503  0.18009989  1
  H  H1  1  0.26329077  0.96259497  0.81990011  1
  H  H2  1  0.15352439  0.29314029  -0.00193525  1
  H  H3  1  0.65352439  0.70685971  0.00193525  1
  H  H4  1  0.99398638  0.61439917  0.37106816  1
  H  H5  1  0.49398638  0.38560083  0.62893184  1
  He  He6  1  0.61840843  0.33512469  0.32808857  1
  He  He7  1  0.11840843  0.66487531  0.67191143  1
  Li  Li8  1  0.21611677  0.04096615  0.35177282  1
  Li  Li9  1  0.71611677  0.95903385  0.64822718  1
  Be  Be10  1  0.12167326  0.94916935  0.19310298  1
  Be  Be11  1  0.62167326  0.05083065  0.80689702  1
