# generated using pymatgen
data_HHeLi4Be
_symmetry_space_group_name_H-M   'P 1'
_cell_length_a   4.72817676
_cell_length_b   5.92534702
_cell_length_c   10.13750572
_cell_angle_alpha   90.00000000
_cell_angle_beta   90.00000000
_cell_angle_gamma   90.00000000
_symmetry_Int_Tables_number   1
_chemical_formula_structural   HHeLi4Be
_chemical_formula_sum   'H4 He4 Li16 Be4'
_cell_volume   284.01325332
_cell_formula_units_Z   4
loop_
 _symmetry_equiv_pos_site_id
 _symmetry_equiv_pos_as_xyz
  1  'x, y, z'
loop_
 _atom_site_type_symbol
 _atom_site_label
 _atom_site_symmetry_multiplicity
 _atom_site_fract_x
 _atom_site_fract_y
 _atom_site_fract_z
 _atom_site_occupancy
  H  H0  1  0.00000000  0.00000000  0.00000000  1
  H  H1  1  0.50000000  0.00000000  0.50000000  1
  H  H2  1  0.00000000  0.50000000  0.00000000  1
  H  H3  1  0.50000000  0.50000000  0.50000000  1
  He  He4  1  0.98300653  0.75000000  0.27526747  1
  He  He5  1  0.48300653  0.25000000  0.22473253  1
  He  He6  1  0.01699347  0.25000000  0.72473253  1
  He  He7  1  0.51699347  0.75000000  0.77526747  1
  Li  Li8  1  0.74307715  0.75000000  0.09938175  1
  Li  Li9  1  0.24307715  0.25000000  0.40061825  1
  Li  Li10  1  0.25692285  0.25000000  0.90061825  1
  Li  Li11  1  0.75692285  0.75000000  0.59938175  1
  Li  Li12  1  0.19987748  0.75000000  0.45134021  1
  Li  Li13  1  0.69987748  0.25000000  0.04865979  1
  Li  Li14  1  0.80012252  0.25000000  0.54865979  1
  Li  Li15  1  0.30012252  0.75000000  0.95134021  1
  Li  Li16  1  0.27701047  0.95734874  0.16578515  1
  Li  Li17  1  0.77701047  0.04265126  0.33421485  1
  Li  Li18  1  0.72298953  0.45734874  0.83421485  1
  Li  Li19  1  0.22298953  0.54265126  0.66578515  1
  Li  Li20  1  0.72298953  0.04265126  0.83421485  1
  Li  Li21  1  0.22298953  0.95734874  0.66578515  1
  Li  Li22  1  0.27701047  0.54265126  0.16578515  1
  Li  Li23  1  0.77701047  0.45734874  0.33421485  1
  Be  Be24  1  0.41840085  0.75000000  0.09432233  1
  Be  Be25  1  0.91840085  0.25000000  0.40567767  1
  Be  Be26  1  0.58159915  0.25000000  0.90567767  1
  Be  Be27  1  0.08159915  0.75000000  0.59432233  1
