# generated using pymatgen
data_HHeLi2
_symmetry_space_group_name_H-M   'P 1'
_cell_length_a   4.03917715
_cell_length_b   6.44474002
_cell_length_c   15.09208622
_cell_angle_alpha   90.00000000
_cell_angle_beta   90.00000000
_cell_angle_gamma   90.00000000
_symmetry_Int_Tables_number   1
_chemical_formula_structural   HHeLi2
_chemical_formula_sum   'H4 He4 Li8'
_cell_volume   392.86883669
_cell_formula_units_Z   4
loop_
 _symmetry_equiv_pos_site_id
 _symmetry_equiv_pos_as_xyz
  1  'x, y, z'
loop_
 _atom_site_type_symbol
 _atom_site_label
 _atom_site_symmetry_multiplicity
 _atom_site_fract_x
 _atom_site_fract_y
 _atom_site_fract_z
 _atom_site_occupancy
  H  H0  1  0.75000000  0.75178649  0.82916683  1
  H  H1  1  0.25000000  0.74821351  0.32916683  1
  H  H2  1  0.25000000  0.24821351  0.17083317  1
  H  H3  1  0.75000000  0.25178649  0.67083317  1
  He  He4  1  0.25000000  0.23381686  0.94016115  1
  He  He5  1  0.75000000  0.26618314  0.44016115  1
  He  He6  1  0.75000000  0.76618314  0.05983885  1
  He  He7  1  0.25000000  0.73381686  0.55983885  1
  Li  Li8  1  0.25000000  0.63297142  0.90565791  1
  Li  Li9  1  0.75000000  0.86702858  0.40565791  1
  Li  Li10  1  0.75000000  0.36702858  0.09434209  1
  Li  Li11  1  0.25000000  0.13297142  0.59434209  1
  Li  Li12  1  0.75000000  0.12962872  0.82475336  1
  Li  Li13  1  0.25000000  0.37037128  0.32475336  1
  Li  Li14  1  0.25000000  0.87037128  0.17524664  1
  Li  Li15  1  0.75000000  0.62962872  0.67524664  1
