# generated using pymatgen
data_HHeLi
_symmetry_space_group_name_H-M   'P 1'
_cell_length_a   4.93735008
_cell_length_b   8.09128192
_cell_length_c   9.15983820
_cell_angle_alpha   90.00000000
_cell_angle_beta   90.00000000
_cell_angle_gamma   90.00000000
_symmetry_Int_Tables_number   1
_chemical_formula_structural   HHeLi
_chemical_formula_sum   'H4 He4 Li4'
_cell_volume   365.93087795
_cell_formula_units_Z   4
loop_
 _symmetry_equiv_pos_site_id
 _symmetry_equiv_pos_as_xyz
  1  'x, y, z'
loop_
 _atom_site_type_symbol
 _atom_site_label
 _atom_site_symmetry_multiplicity
 _atom_site_fract_x
 _atom_site_fract_y
 _atom_site_fract_z
 _atom_site_occupancy
  H  H0  1  0.25000000  0.14803338  0.92657150  1
  H  H1  1  0.75000000  0.35196662  0.42657150  1
  H  H2  1  0.75000000  0.85196662  0.07342850  1
  H  H3  1  0.25000000  0.64803338  0.57342850  1
  He  He4  1  0.25000000  0.26634900  0.60621678  1
  He  He5  1  0.75000000  0.23365100  0.10621678  1
  He  He6  1  0.75000000  0.73365100  0.39378322  1
  He  He7  1  0.25000000  0.76634900  0.89378322  1
  Li  Li8  1  0.25000000  0.02152679  0.32132140  1
  Li  Li9  1  0.75000000  0.47847321  0.82132140  1
  Li  Li10  1  0.75000000  0.97847321  0.67867860  1
  Li  Li11  1  0.25000000  0.52152679  0.17867860  1
