# generated using pymatgen
data_HHe3Li8
_symmetry_space_group_name_H-M   'P 1'
_cell_length_a   5.01303402
_cell_length_b   5.01303402
_cell_length_c   15.92431697
_cell_angle_alpha   90.00000000
_cell_angle_beta   90.00000000
_cell_angle_gamma   120.00004386
_symmetry_Int_Tables_number   1
_chemical_formula_structural   HHe3Li8
_chemical_formula_sum   'H2 He6 Li16'
_cell_volume   346.57126921
_cell_formula_units_Z   2
loop_
 _symmetry_equiv_pos_site_id
 _symmetry_equiv_pos_as_xyz
  1  'x, y, z'
loop_
 _atom_site_type_symbol
 _atom_site_label
 _atom_site_symmetry_multiplicity
 _atom_site_fract_x
 _atom_site_fract_y
 _atom_site_fract_z
 _atom_site_occupancy
  H  H0  1  0.00000000  -0.00000000  -0.00000000  1
  H  H1  1  -0.00000000  0.00000000  0.50000000  1
  He  He2  1  0.33333289  0.66666711  0.54635179  1
  He  He3  1  0.66666711  0.33333289  0.04635179  1
  He  He4  1  0.66666711  0.33333289  0.45364821  1
  He  He5  1  0.33333289  0.66666711  0.95364821  1
  He  He6  1  0.33332846  0.66667154  0.75000000  1
  He  He7  1  0.66667154  0.33332846  0.25000000  1
  Li  Li8  1  0.16869442  0.33738806  0.12436925  1
  Li  Li9  1  0.66261194  0.83130558  0.12436925  1
  Li  Li10  1  0.16869832  0.83130168  0.12436652  1
  Li  Li11  1  0.83130558  0.66261194  0.62436925  1
  Li  Li12  1  0.33738806  0.16869442  0.62436925  1
  Li  Li13  1  0.83130168  0.16869832  0.62436652  1
  Li  Li14  1  0.33738806  0.16869442  0.87563075  1
  Li  Li15  1  0.83130558  0.66261194  0.87563075  1
  Li  Li16  1  0.83130168  0.16869832  0.87563348  1
  Li  Li17  1  0.66261194  0.83130558  0.37563075  1
  Li  Li18  1  0.16869442  0.33738806  0.37563075  1
  Li  Li19  1  0.16869832  0.83130168  0.37563348  1
  Li  Li20  1  0.33332815  0.66667185  0.25000000  1
  Li  Li21  1  0.66667185  0.33332815  0.75000000  1
  Li  Li22  1  0.00001447  0.99998553  0.25000000  1
  Li  Li23  1  0.99998553  0.00001447  0.75000000  1
