# generated using pymatgen
data_H2HeLi6Be
_symmetry_space_group_name_H-M   'P 1'
_cell_length_a   6.12761146
_cell_length_b   6.12761146
_cell_length_c   6.12761146
_cell_angle_alpha   60.45604357
_cell_angle_beta   60.45604357
_cell_angle_gamma   60.45604357
_symmetry_Int_Tables_number   1
_chemical_formula_structural   H2HeLi6Be
_chemical_formula_sum   'H2 He1 Li6 Be1'
_cell_volume   164.36641912
_cell_formula_units_Z   1
loop_
 _symmetry_equiv_pos_site_id
 _symmetry_equiv_pos_as_xyz
  1  'x, y, z'
loop_
 _atom_site_type_symbol
 _atom_site_label
 _atom_site_symmetry_multiplicity
 _atom_site_fract_x
 _atom_site_fract_y
 _atom_site_fract_z
 _atom_site_occupancy
  H  H0  1  0.74827651  0.74827651  0.74827651  1
  H  H1  1  0.25172349  0.25172349  0.25172349  1
  He  He2  1  0.50000000  0.50000000  0.50000000  1
  Li  Li3  1  0.27388180  0.67555769  0.78340320  1
  Li  Li4  1  0.67555769  0.78340320  0.27388180  1
  Li  Li5  1  0.78340320  0.27388180  0.67555769  1
  Li  Li6  1  0.72611820  0.32444231  0.21659680  1
  Li  Li7  1  0.32444231  0.21659680  0.72611820  1
  Li  Li8  1  0.21659680  0.72611820  0.32444231  1
  Be  Be9  1  0.00000000  0.00000000  0.00000000  1
