# generated using pymatgen
data_HHe3(Li3Be)4
_symmetry_space_group_name_H-M   'P 1'
_cell_length_a   6.53461320
_cell_length_b   6.53461320
_cell_length_c   6.53461320
_cell_angle_alpha   109.47122063
_cell_angle_beta   109.47122063
_cell_angle_gamma   109.47122063
_symmetry_Int_Tables_number   1
_chemical_formula_structural   HHe3(Li3Be)4
_chemical_formula_sum   'H1 He3 Li12 Be4'
_cell_volume   214.80172550
_cell_formula_units_Z   1
loop_
 _symmetry_equiv_pos_site_id
 _symmetry_equiv_pos_as_xyz
  1  'x, y, z'
loop_
 _atom_site_type_symbol
 _atom_site_label
 _atom_site_symmetry_multiplicity
 _atom_site_fract_x
 _atom_site_fract_y
 _atom_site_fract_z
 _atom_site_occupancy
  H  H0  1  0.00000000  0.00000000  0.00000000  1
  He  He1  1  0.50000000  0.50000000  -0.00000000  1
  He  He2  1  -0.00000000  0.50000000  0.50000000  1
  He  He3  1  0.50000000  -0.00000000  0.50000000  1
  Li  Li4  1  0.30502509  0.12922304  0.82419794  1
  Li  Li5  1  0.69497491  0.87077696  0.17580206  1
  Li  Li6  1  0.69497491  0.51917285  0.82419794  1
  Li  Li7  1  0.30502509  0.48082715  0.17580206  1
  Li  Li8  1  0.82419794  0.69497491  0.51917285  1
  Li  Li9  1  0.17580206  0.30502509  0.48082715  1
  Li  Li10  1  0.82419794  0.30502509  0.12922304  1
  Li  Li11  1  0.17580206  0.69497491  0.87077696  1
  Li  Li12  1  0.87077696  0.17580206  0.69497491  1
  Li  Li13  1  0.12922304  0.82419794  0.30502509  1
  Li  Li14  1  0.48082715  0.17580206  0.30502509  1
  Li  Li15  1  0.51917285  0.82419794  0.69497491  1
  Be  Be16  1  -0.00000000  -0.00000000  0.50000000  1
  Be  Be17  1  0.50000000  -0.00000000  -0.00000000  1
  Be  Be18  1  0.00000000  0.50000000  0.00000000  1
  Be  Be19  1  0.50000000  0.50000000  0.50000000  1
