# generated using pymatgen
data_H2HeLiBe4
_symmetry_space_group_name_H-M   'P 1'
_cell_length_a   6.28676101
_cell_length_b   6.28676101
_cell_length_c   10.37785896
_cell_angle_alpha   90.00000000
_cell_angle_beta   90.00000000
_cell_angle_gamma   113.60786951
_symmetry_Int_Tables_number   1
_chemical_formula_structural   H2HeLiBe4
_chemical_formula_sum   'H4 He2 Li2 Be8'
_cell_volume   375.84001605
_cell_formula_units_Z   2
loop_
 _symmetry_equiv_pos_site_id
 _symmetry_equiv_pos_as_xyz
  1  'x, y, z'
loop_
 _atom_site_type_symbol
 _atom_site_label
 _atom_site_symmetry_multiplicity
 _atom_site_fract_x
 _atom_site_fract_y
 _atom_site_fract_z
 _atom_site_occupancy
  H  H0  1  0.39670754  0.64229312  0.10646894  1
  H  H1  1  0.64229312  0.39670754  0.89353106  1
  H  H2  1  0.64229312  0.39670754  0.60646894  1
  H  H3  1  0.39670754  0.64229312  0.39353106  1
  He  He4  1  0.67946644  0.27982049  0.25000000  1
  He  He5  1  0.27982049  0.67946644  0.75000000  1
  Li  Li6  1  0.01464125  0.01464125  0.00000000  1
  Li  Li7  1  0.01464125  0.01464125  0.50000000  1
  Be  Be8  1  0.02877947  0.26142988  0.25000000  1
  Be  Be9  1  0.26142988  0.02877947  0.75000000  1
  Be  Be10  1  0.73426808  0.65322880  0.25000000  1
  Be  Be11  1  0.65322880  0.73426808  0.75000000  1
  Be  Be12  1  0.48906681  0.09369471  0.42786799  1
  Be  Be13  1  0.09369471  0.48906681  0.57213201  1
  Be  Be14  1  0.09369471  0.48906681  0.92786799  1
  Be  Be15  1  0.48906681  0.09369471  0.07213201  1
