# generated using pymatgen
data_H3HeLi3
_symmetry_space_group_name_H-M   'P 1'
_cell_length_a   9.21631238
_cell_length_b   9.20699040
_cell_length_c   4.47420157
_cell_angle_alpha   90.00000000
_cell_angle_beta   90.00000000
_cell_angle_gamma   119.97239894
_symmetry_Int_Tables_number   1
_chemical_formula_structural   H3HeLi3
_chemical_formula_sum   'H6 He2 Li6'
_cell_volume   328.88326551
_cell_formula_units_Z   2
loop_
 _symmetry_equiv_pos_site_id
 _symmetry_equiv_pos_as_xyz
  1  'x, y, z'
loop_
 _atom_site_type_symbol
 _atom_site_label
 _atom_site_symmetry_multiplicity
 _atom_site_fract_x
 _atom_site_fract_y
 _atom_site_fract_z
 _atom_site_occupancy
  H  H0  1  0.17902400  0.02658667  0.25000000  1
  H  H1  1  0.97334900  0.15258930  0.25000000  1
  H  H2  1  0.84764356  0.82084113  0.25000000  1
  H  H3  1  0.82097600  0.97341333  0.75000000  1
  H  H4  1  0.02665100  0.84741070  0.75000000  1
  H  H5  1  0.15235644  0.17915887  0.75000000  1
  He  He6  1  0.66656625  0.33334572  0.25000000  1
  He  He7  1  0.33343375  0.66665428  0.75000000  1
  Li  Li8  1  0.28669472  0.33902358  0.25000000  1
  Li  Li9  1  0.66128178  0.94808436  0.25000000  1
  Li  Li10  1  0.05205034  0.71290000  0.25000000  1
  Li  Li11  1  0.71330528  0.66097642  0.75000000  1
  Li  Li12  1  0.33871822  0.05191564  0.75000000  1
  Li  Li13  1  0.94794966  0.28710000  0.75000000  1
