# generated using pymatgen
data_H5He3
_symmetry_space_group_name_H-M   'P 1'
_cell_length_a   8.48610957
_cell_length_b   8.48602273
_cell_length_c   5.74887010
_cell_angle_alpha   90.00000000
_cell_angle_beta   90.00000000
_cell_angle_gamma   120.00033850
_symmetry_Int_Tables_number   1
_chemical_formula_structural   H5He3
_chemical_formula_sum   'H10 He6'
_cell_volume   358.52914982
_cell_formula_units_Z   2
loop_
 _symmetry_equiv_pos_site_id
 _symmetry_equiv_pos_as_xyz
  1  'x, y, z'
loop_
 _atom_site_type_symbol
 _atom_site_label
 _atom_site_symmetry_multiplicity
 _atom_site_fract_x
 _atom_site_fract_y
 _atom_site_fract_z
 _atom_site_occupancy
  H  H0  1  0.00000316  0.75629812  0.25000000  1
  H  H1  1  0.24370504  0.24370188  0.25000000  1
  H  H2  1  0.75629000  0.00000000  0.25000000  1
  H  H3  1  0.99999684  0.24370188  0.75000000  1
  H  H4  1  0.75629496  0.75629812  0.75000000  1
  H  H5  1  0.24371000  0.00000000  0.75000000  1
  H  H6  1  0.66666786  0.33333572  0.00000000  1
  H  H7  1  0.33333214  0.66666428  0.50000000  1
  H  H8  1  0.33333214  0.66666428  -0.00000000  1
  H  H9  1  0.66666786  0.33333572  0.50000000  1
  He  He10  1  0.00000576  0.39263570  0.25000000  1
  He  He11  1  0.60737007  0.60736430  0.25000000  1
  He  He12  1  0.39262659  0.00000000  0.25000000  1
  He  He13  1  -0.00000576  0.60736430  0.75000000  1
  He  He14  1  0.39262993  0.39263570  0.75000000  1
  He  He15  1  0.60737341  0.00000000  0.75000000  1
