# generated using pymatgen
data_H2HeLi4Be
_symmetry_space_group_name_H-M   'P 1'
_cell_length_a   6.66877942
_cell_length_b   6.66877942
_cell_length_c   9.80374355
_cell_angle_alpha   90.00000000
_cell_angle_beta   90.00000000
_cell_angle_gamma   116.28551302
_symmetry_Int_Tables_number   1
_chemical_formula_structural   H2HeLi4Be
_chemical_formula_sum   'H8 He4 Li16 Be4'
_cell_volume   390.91525788
_cell_formula_units_Z   4
loop_
 _symmetry_equiv_pos_site_id
 _symmetry_equiv_pos_as_xyz
  1  'x, y, z'
loop_
 _atom_site_type_symbol
 _atom_site_label
 _atom_site_symmetry_multiplicity
 _atom_site_fract_x
 _atom_site_fract_y
 _atom_site_fract_z
 _atom_site_occupancy
  H  H0  1  0.64723534  0.81758309  0.44577301  1
  H  H1  1  0.35276466  0.18241691  0.94577301  1
  H  H2  1  0.81758309  0.64723534  0.94577301  1
  H  H3  1  0.18241691  0.35276466  0.44577301  1
  H  H4  1  0.68927990  0.31072010  0.71509055  1
  H  H5  1  0.31072010  0.68927990  0.21509055  1
  H  H6  1  0.82195985  0.17804015  0.68291742  1
  H  H7  1  0.17804015  0.82195985  0.18291742  1
  He  He8  1  0.59584485  0.93153671  0.92900149  1
  He  He9  1  0.40415515  0.06846329  0.42900149  1
  He  He10  1  0.93153671  0.59584485  0.42900149  1
  He  He11  1  0.06846329  0.40415515  0.92900149  1
  Li  Li12  1  0.23385976  0.76614024  0.81869061  1
  Li  Li13  1  0.76614024  0.23385976  0.31869061  1
  Li  Li14  1  0.09927729  0.90072271  0.58509959  1
  Li  Li15  1  0.90072271  0.09927729  0.08509959  1
  Li  Li16  1  0.22034647  0.17025676  0.81060866  1
  Li  Li17  1  0.77965353  0.82974324  0.31060866  1
  Li  Li18  1  0.17025676  0.22034647  0.31060866  1
  Li  Li19  1  0.82974324  0.77965353  0.81060866  1
  Li  Li20  1  0.56089774  0.82609117  0.53104368  1
  Li  Li21  1  0.43910226  0.17390883  0.03104368  1
  Li  Li22  1  0.82609117  0.56089774  0.03104368  1
  Li  Li23  1  0.17390883  0.43910226  0.53104368  1
  Li  Li24  1  0.57419557  0.42580443  0.54996657  1
  Li  Li25  1  0.42580443  0.57419557  0.04996657  1
  Li  Li26  1  0.76708639  0.23291361  0.75956126  1
  Li  Li27  1  0.23291361  0.76708639  0.25956126  1
  Be  Be28  1  0.09721607  0.90278393  0.75411856  1
  Be  Be29  1  0.90278393  0.09721607  0.25411856  1
  Be  Be30  1  0.43817242  0.56182758  0.61777177  1
  Be  Be31  1  0.56182758  0.43817242  0.11777177  1
