# generated using pymatgen
data_H4He7LiBe
_symmetry_space_group_name_H-M   'P 1'
_cell_length_a   5.84123053
_cell_length_b   11.93280238
_cell_length_c   18.46569078
_cell_angle_alpha   90.00000000
_cell_angle_beta   90.00000000
_cell_angle_gamma   90.00000000
_symmetry_Int_Tables_number   1
_chemical_formula_structural   H4He7LiBe
_chemical_formula_sum   'H32 He56 Li8 Be8'
_cell_volume   1287.10018596
_cell_formula_units_Z   8
loop_
 _symmetry_equiv_pos_site_id
 _symmetry_equiv_pos_as_xyz
  1  'x, y, z'
loop_
 _atom_site_type_symbol
 _atom_site_label
 _atom_site_symmetry_multiplicity
 _atom_site_fract_x
 _atom_site_fract_y
 _atom_site_fract_z
 _atom_site_occupancy
  H  H0  1  0.51522476  0.49240062  0.78654808  1
  H  H1  1  0.98477524  0.99240062  0.21345192  1
  H  H2  1  0.48477524  0.00759938  0.28654808  1
  H  H3  1  0.01522476  0.50759938  0.71345192  1
  H  H4  1  0.48477524  0.50759938  0.21345192  1
  H  H5  1  0.01522476  0.00759938  0.78654808  1
  H  H6  1  0.51522476  0.99240062  0.71345192  1
  H  H7  1  0.98477524  0.49240062  0.28654808  1
  H  H8  1  0.71122925  0.39445439  0.78120201  1
  H  H9  1  0.78877075  0.89445439  0.21879799  1
  H  H10  1  0.28877075  0.10554561  0.28120201  1
  H  H11  1  0.21122925  0.60554561  0.71879799  1
  H  H12  1  0.28877075  0.60554561  0.21879799  1
  H  H13  1  0.21122925  0.10554561  0.78120201  1
  H  H14  1  0.71122925  0.89445439  0.71879799  1
  H  H15  1  0.78877075  0.39445439  0.28120201  1
  H  H16  1  0.06063418  0.34867592  0.79136564  1
  H  H17  1  0.43936582  0.84867592  0.20863436  1
  H  H18  1  0.93936582  0.15132408  0.29136564  1
  H  H19  1  0.56063418  0.65132408  0.70863436  1
  H  H20  1  0.93936582  0.65132408  0.20863436  1
  H  H21  1  0.56063418  0.15132408  0.79136564  1
  H  H22  1  0.06063418  0.84867592  0.70863436  1
  H  H23  1  0.43936582  0.34867592  0.29136564  1
  H  H24  1  0.96102956  0.32008762  0.71295933  1
  H  H25  1  0.53897044  0.82008762  0.28704067  1
  H  H26  1  0.03897044  0.17991238  0.21295933  1
  H  H27  1  0.46102956  0.67991238  0.78704067  1
  H  H28  1  0.03897044  0.67991238  0.28704067  1
  H  H29  1  0.46102956  0.17991238  0.71295933  1
  H  H30  1  0.96102956  0.82008762  0.78704067  1
  H  H31  1  0.53897044  0.32008762  0.21295933  1
  He  He32  1  0.37366720  0.20734290  0.00651897  1
  He  He33  1  0.12633280  0.70734290  0.99348103  1
  He  He34  1  0.62633280  0.29265710  0.50651897  1
  He  He35  1  0.87366720  0.79265710  0.49348103  1
  He  He36  1  0.62633280  0.79265710  0.99348103  1
  He  He37  1  0.87366720  0.29265710  0.00651897  1
  He  He38  1  0.37366720  0.70734290  0.49348103  1
  He  He39  1  0.12633280  0.20734290  0.50651897  1
  He  He40  1  0.28239613  0.04076368  0.11761360  1
  He  He41  1  0.21760387  0.54076368  0.88238640  1
  He  He42  1  0.71760387  0.45923632  0.61761360  1
  He  He43  1  0.78239613  0.95923632  0.38238640  1
  He  He44  1  0.71760387  0.95923632  0.88238640  1
  He  He45  1  0.78239613  0.45923632  0.11761360  1
  He  He46  1  0.28239613  0.54076368  0.38238640  1
  He  He47  1  0.21760387  0.04076368  0.61761360  1
  He  He48  1  0.60426750  0.21553546  0.14630829  1
  He  He49  1  0.89573250  0.71553546  0.85369171  1
  He  He50  1  0.39573250  0.28446454  0.64630829  1
  He  He51  1  0.10426750  0.78446454  0.35369171  1
  He  He52  1  0.39573250  0.78446454  0.85369171  1
  He  He53  1  0.10426750  0.28446454  0.14630829  1
  He  He54  1  0.60426750  0.71553546  0.35369171  1
  He  He55  1  0.89573250  0.21553546  0.64630829  1
  He  He56  1  0.71229472  0.04295883  0.04658974  1
  He  He57  1  0.78770528  0.54295883  0.95341026  1
  He  He58  1  0.28770528  0.45704117  0.54658974  1
  He  He59  1  0.21229472  0.95704117  0.45341026  1
  He  He60  1  0.28770528  0.95704117  0.95341026  1
  He  He61  1  0.21229472  0.45704117  0.04658974  1
  He  He62  1  0.71229472  0.54295883  0.45341026  1
  He  He63  1  0.78770528  0.04295883  0.54658974  1
  He  He64  1  0.68030573  0.21911582  0.86741948  1
  He  He65  1  0.81969427  0.71911582  0.13258052  1
  He  He66  1  0.31969427  0.28088418  0.36741948  1
  He  He67  1  0.18030573  0.78088418  0.63258052  1
  He  He68  1  0.31969427  0.78088418  0.13258052  1
  He  He69  1  0.18030573  0.28088418  0.86741948  1
  He  He70  1  0.68030573  0.71911582  0.63258052  1
  He  He71  1  0.81969427  0.21911582  0.36741948  1
  He  He72  1  0.55033048  0.41236605  0.79974281  1
  He  He73  1  0.94966952  0.91236605  0.20025719  1
  He  He74  1  0.44966952  0.08763395  0.29974281  1
  He  He75  1  0.05033048  0.58763395  0.70025719  1
  He  He76  1  0.44966952  0.58763395  0.20025719  1
  He  He77  1  0.05033048  0.08763395  0.79974281  1
  He  He78  1  0.55033048  0.91236605  0.70025719  1
  He  He79  1  0.94966952  0.41236605  0.29974281  1
  He  He80  1  0.96516361  0.37898056  0.75081477  1
  He  He81  1  0.53483639  0.87898056  0.24918523  1
  He  He82  1  0.03483639  0.12101944  0.25081477  1
  He  He83  1  0.46516361  0.62101944  0.74918523  1
  He  He84  1  0.03483639  0.62101944  0.24918523  1
  He  He85  1  0.46516361  0.12101944  0.75081477  1
  He  He86  1  0.96516361  0.87898056  0.74918523  1
  He  He87  1  0.53483639  0.37898056  0.25081477  1
  Li  Li88  1  0.49101689  0.12748525  0.07923841  1
  Li  Li89  1  0.00898311  0.62748525  0.92076159  1
  Li  Li90  1  0.50898311  0.37251475  0.57923841  1
  Li  Li91  1  0.99101689  0.87251475  0.42076159  1
  Li  Li92  1  0.50898311  0.87251475  0.92076159  1
  Li  Li93  1  0.99101689  0.37251475  0.07923841  1
  Li  Li94  1  0.49101689  0.62748525  0.42076159  1
  Li  Li95  1  0.00898311  0.12748525  0.57923841  1
  Be  Be96  1  0.47459081  0.34149724  0.90775763  1
  Be  Be97  1  0.02540919  0.84149724  0.09224237  1
  Be  Be98  1  0.52540919  0.15850276  0.40775763  1
  Be  Be99  1  0.97459081  0.65850276  0.59224237  1
  Be  Be100  1  0.52540919  0.65850276  0.09224237  1
  Be  Be101  1  0.97459081  0.15850276  0.90775763  1
  Be  Be102  1  0.47459081  0.84149724  0.59224237  1
  Be  Be103  1  0.02540919  0.34149724  0.40775763  1
