# generated using pymatgen
data_H2HeLi5
_symmetry_space_group_name_H-M   'P 1'
_cell_length_a   3.97633049
_cell_length_b   11.22119377
_cell_length_c   11.13538219
_cell_angle_alpha   90.00000000
_cell_angle_beta   90.00000000
_cell_angle_gamma   90.00000000
_symmetry_Int_Tables_number   1
_chemical_formula_structural   H2HeLi5
_chemical_formula_sum   'H8 He4 Li20'
_cell_volume   496.85156638
_cell_formula_units_Z   4
loop_
 _symmetry_equiv_pos_site_id
 _symmetry_equiv_pos_as_xyz
  1  'x, y, z'
loop_
 _atom_site_type_symbol
 _atom_site_label
 _atom_site_symmetry_multiplicity
 _atom_site_fract_x
 _atom_site_fract_y
 _atom_site_fract_z
 _atom_site_occupancy
  H  H0  1  0.75000000  0.28045897  0.58037902  1
  H  H1  1  0.25000000  0.78045897  0.91962098  1
  H  H2  1  0.25000000  0.71954103  0.41962098  1
  H  H3  1  0.75000000  0.21954103  0.08037902  1
  H  H4  1  0.75000000  0.54740588  0.14174969  1
  H  H5  1  0.25000000  0.04740588  0.35825031  1
  H  H6  1  0.25000000  0.45259412  0.85825031  1
  H  H7  1  0.75000000  0.95259412  0.64174969  1
  He  He8  1  0.25000000  0.36343332  0.29714770  1
  He  He9  1  0.75000000  0.86343332  0.20285230  1
  He  He10  1  0.75000000  0.63656668  0.70285230  1
  He  He11  1  0.25000000  0.13656668  0.79714770  1
  Li  Li12  1  0.25000000  0.26289887  0.69470770  1
  Li  Li13  1  0.75000000  0.76289887  0.80529230  1
  Li  Li14  1  0.75000000  0.73710113  0.30529230  1
  Li  Li15  1  0.25000000  0.23710113  0.19470770  1
  Li  Li16  1  0.75000000  0.39879835  0.00578642  1
  Li  Li17  1  0.25000000  0.89879835  0.49421358  1
  Li  Li18  1  0.25000000  0.60120165  0.99421358  1
  Li  Li19  1  0.75000000  0.10120165  0.50578642  1
  Li  Li20  1  0.75000000  0.01942765  0.24863619  1
  Li  Li21  1  0.25000000  0.51942765  0.25136381  1
  Li  Li22  1  0.25000000  0.98057235  0.75136381  1
  Li  Li23  1  0.75000000  0.48057235  0.74863619  1
  Li  Li24  1  0.75000000  0.82033392  0.05059517  1
  Li  Li25  1  0.25000000  0.32033392  0.44940483  1
  Li  Li26  1  0.25000000  0.17966608  0.94940483  1
  Li  Li27  1  0.75000000  0.67966608  0.55059517  1
  Li  Li28  1  0.75000000  0.37244145  0.26055144  1
  Li  Li29  1  0.25000000  0.87244145  0.23944856  1
  Li  Li30  1  0.25000000  0.62755855  0.73944856  1
  Li  Li31  1  0.75000000  0.12755855  0.76055144  1
