# generated using pymatgen
data_HHe4Li
_symmetry_space_group_name_H-M   'P 1'
_cell_length_a   8.16898673
_cell_length_b   8.16898673
_cell_length_c   6.67811532
_cell_angle_alpha   90.00000000
_cell_angle_beta   90.00000000
_cell_angle_gamma   90.00000000
_symmetry_Int_Tables_number   1
_chemical_formula_structural   HHe4Li
_chemical_formula_sum   'H4 He16 Li4'
_cell_volume   445.64629073
_cell_formula_units_Z   4
loop_
 _symmetry_equiv_pos_site_id
 _symmetry_equiv_pos_as_xyz
  1  'x, y, z'
loop_
 _atom_site_type_symbol
 _atom_site_label
 _atom_site_symmetry_multiplicity
 _atom_site_fract_x
 _atom_site_fract_y
 _atom_site_fract_z
 _atom_site_occupancy
  H  H0  1  0.75000000  0.25000000  0.50000000  1
  H  H1  1  0.25000000  0.75000000  0.50000000  1
  H  H2  1  0.25000000  0.25000000  0.44884471  1
  H  H3  1  0.75000000  0.75000000  0.55115529  1
  He  He4  1  0.25000000  0.99737877  0.05106069  1
  He  He5  1  0.25000000  0.50262123  0.05106069  1
  He  He6  1  0.50262123  0.25000000  0.05106069  1
  He  He7  1  0.99737877  0.25000000  0.05106069  1
  He  He8  1  0.75000000  0.49737877  0.94893931  1
  He  He9  1  0.75000000  0.00262123  0.94893931  1
  He  He10  1  0.49737877  0.75000000  0.94893931  1
  He  He11  1  0.00262123  0.75000000  0.94893931  1
  He  He12  1  0.96933983  0.96933983  0.28582388  1
  He  He13  1  0.53066017  0.53066017  0.28582388  1
  He  He14  1  0.53066017  0.96933983  0.28582388  1
  He  He15  1  0.96933983  0.53066017  0.28582388  1
  He  He16  1  0.03066017  0.46933983  0.71417612  1
  He  He17  1  0.46933983  0.03066017  0.71417612  1
  He  He18  1  0.46933983  0.46933983  0.71417612  1
  He  He19  1  0.03066017  0.03066017  0.71417612  1
  Li  Li20  1  -0.00000000  0.00000000  -0.00000000  1
  Li  Li21  1  0.50000000  0.50000000  0.00000000  1
  Li  Li22  1  0.50000000  0.00000000  -0.00000000  1
  Li  Li23  1  0.00000000  0.50000000  0.00000000  1
