# generated using pymatgen
data_H2He4LiBe
_symmetry_space_group_name_H-M   'P 1'
_cell_length_a   6.32995794
_cell_length_b   7.35638555
_cell_length_c   11.25689323
_cell_angle_alpha   90.00000000
_cell_angle_beta   90.00000000
_cell_angle_gamma   90.00000000
_symmetry_Int_Tables_number   1
_chemical_formula_structural   H2He4LiBe
_chemical_formula_sum   'H8 He16 Li4 Be4'
_cell_volume   524.18411259
_cell_formula_units_Z   4
loop_
 _symmetry_equiv_pos_site_id
 _symmetry_equiv_pos_as_xyz
  1  'x, y, z'
loop_
 _atom_site_type_symbol
 _atom_site_label
 _atom_site_symmetry_multiplicity
 _atom_site_fract_x
 _atom_site_fract_y
 _atom_site_fract_z
 _atom_site_occupancy
  H  H0  1  0.12906447  0.03693905  0.25000000  1
  H  H1  1  0.87093553  0.96306095  0.75000000  1
  H  H2  1  0.87093553  0.53693905  0.25000000  1
  H  H3  1  0.12906447  0.46306095  0.75000000  1
  H  H4  1  0.60814370  0.25000000  -0.00000000  1
  H  H5  1  0.39185630  0.75000000  0.50000000  1
  H  H6  1  0.39185630  0.75000000  0.00000000  1
  H  H7  1  0.60814370  0.25000000  0.50000000  1
  He  He8  1  0.04503632  0.76777636  0.11632352  1
  He  He9  1  0.95496368  0.23222364  0.61632352  1
  He  He10  1  0.95496368  0.26777636  0.38367648  1
  He  He11  1  0.04503632  0.73222364  0.88367648  1
  He  He12  1  0.95496368  0.23222364  0.88367648  1
  He  He13  1  0.04503632  0.76777636  0.38367648  1
  He  He14  1  0.04503632  0.73222364  0.61632352  1
  He  He15  1  0.95496368  0.26777636  0.11632352  1
  He  He16  1  0.26911926  0.07683097  0.03189187  1
  He  He17  1  0.73088074  0.92316903  0.53189187  1
  He  He18  1  0.73088074  0.57683097  0.46810813  1
  He  He19  1  0.26911926  0.42316903  0.96810813  1
  He  He20  1  0.73088074  0.92316903  0.96810813  1
  He  He21  1  0.26911926  0.07683097  0.46810813  1
  He  He22  1  0.26911926  0.42316903  0.53189187  1
  He  He23  1  0.73088074  0.57683097  0.03189187  1
  Li  Li24  1  0.42570326  0.38886189  0.25000000  1
  Li  Li25  1  0.57429674  0.61113811  0.75000000  1
  Li  Li26  1  0.57429674  0.88886189  0.25000000  1
  Li  Li27  1  0.42570326  0.11113811  0.75000000  1
  Be  Be28  1  0.11366531  0.25000000  -0.00000000  1
  Be  Be29  1  0.88633469  0.75000000  0.50000000  1
  Be  Be30  1  0.88633469  0.75000000  0.00000000  1
  Be  Be31  1  0.11366531  0.25000000  0.50000000  1
