# generated using pymatgen
data_HHe3Li
_symmetry_space_group_name_H-M   'P 1'
_cell_length_a   5.39654914
_cell_length_b   5.66385986
_cell_length_c   7.72221584
_cell_angle_alpha   90.00000000
_cell_angle_beta   90.00000000
_cell_angle_gamma   90.00000000
_symmetry_Int_Tables_number   1
_chemical_formula_structural   HHe3Li
_chemical_formula_sum   'H4 He12 Li4'
_cell_volume   236.03182886
_cell_formula_units_Z   4
loop_
 _symmetry_equiv_pos_site_id
 _symmetry_equiv_pos_as_xyz
  1  'x, y, z'
loop_
 _atom_site_type_symbol
 _atom_site_label
 _atom_site_symmetry_multiplicity
 _atom_site_fract_x
 _atom_site_fract_y
 _atom_site_fract_z
 _atom_site_occupancy
  H  H0  1  0.97968693  0.94046355  0.75000000  1
  H  H1  1  0.47968693  0.55953645  0.25000000  1
  H  H2  1  0.02031307  0.05953645  0.25000000  1
  H  H3  1  0.52031307  0.44046355  0.75000000  1
  He  He4  1  0.80482353  0.20285598  0.55085971  1
  He  He5  1  0.30482353  0.29714402  0.44914029  1
  He  He6  1  0.19517647  0.79714402  0.05085971  1
  He  He7  1  0.69517647  0.70285598  0.94914029  1
  He  He8  1  0.19517647  0.79714402  0.44914029  1
  He  He9  1  0.69517647  0.70285598  0.55085971  1
  He  He10  1  0.80482353  0.20285598  0.94914029  1
  He  He11  1  0.30482353  0.29714402  0.05085971  1
  He  He12  1  0.39561892  0.03432150  0.75000000  1
  He  He13  1  0.89561892  0.46567850  0.25000000  1
  He  He14  1  0.60438108  0.96567850  0.25000000  1
  He  He15  1  0.10438108  0.53432150  0.75000000  1
  Li  Li16  1  0.50000000  0.00000000  0.00000000  1
  Li  Li17  1  0.00000000  0.50000000  0.00000000  1
  Li  Li18  1  0.50000000  0.00000000  0.50000000  1
  Li  Li19  1  -0.00000000  0.50000000  0.50000000  1
