# generated using pymatgen
data_HHe4Li4
_symmetry_space_group_name_H-M   'P 1'
_cell_length_a   6.27531622
_cell_length_b   6.27531622
_cell_length_c   6.27531622
_cell_angle_alpha   90.00000000
_cell_angle_beta   90.00000000
_cell_angle_gamma   90.00000000
_symmetry_Int_Tables_number   1
_chemical_formula_structural   HHe4Li4
_chemical_formula_sum   'H1 He4 Li4'
_cell_volume   247.11940234
_cell_formula_units_Z   1
loop_
 _symmetry_equiv_pos_site_id
 _symmetry_equiv_pos_as_xyz
  1  'x, y, z'
loop_
 _atom_site_type_symbol
 _atom_site_label
 _atom_site_symmetry_multiplicity
 _atom_site_fract_x
 _atom_site_fract_y
 _atom_site_fract_z
 _atom_site_occupancy
  H  H0  1  0.50000000  0.50000000  0.50000000  1
  He  He1  1  0.76918742  0.76918742  0.76918742  1
  He  He2  1  0.23081258  0.23081258  0.76918742  1
  He  He3  1  0.23081258  0.76918742  0.23081258  1
  He  He4  1  0.76918742  0.23081258  0.23081258  1
  Li  Li5  1  0.36741303  0.36741303  0.36741303  1
  Li  Li6  1  0.63258697  0.63258697  0.36741303  1
  Li  Li7  1  0.63258697  0.36741303  0.63258697  1
  Li  Li8  1  0.36741303  0.63258697  0.63258697  1
