# generated using pymatgen
data_HHe2Li6Be12B
_symmetry_space_group_name_H-M   'P 1'
_cell_length_a   7.69133688
_cell_length_b   7.69133688
_cell_length_c   7.69133688
_cell_angle_alpha   60.00000000
_cell_angle_beta   60.00000000
_cell_angle_gamma   60.00000000
_symmetry_Int_Tables_number   1
_chemical_formula_structural   HHe2Li6Be12B
_chemical_formula_sum   'H1 He2 Li6 Be12 B1'
_cell_volume   321.72921877
_cell_formula_units_Z   1
loop_
 _symmetry_equiv_pos_site_id
 _symmetry_equiv_pos_as_xyz
  1  'x, y, z'
loop_
 _atom_site_type_symbol
 _atom_site_label
 _atom_site_symmetry_multiplicity
 _atom_site_fract_x
 _atom_site_fract_y
 _atom_site_fract_z
 _atom_site_occupancy
  H  H0  1  -0.00000000  -0.00000000  -0.00000000  1
  He  He1  1  0.25000000  0.25000000  0.25000000  1
  He  He2  1  0.75000000  0.75000000  0.75000000  1
  Li  Li3  1  0.20118819  0.79881181  0.20118819  1
  Li  Li4  1  0.79881181  0.20118819  0.79881181  1
  Li  Li5  1  0.79881181  0.79881181  0.20118819  1
  Li  Li6  1  0.20118819  0.20118819  0.79881181  1
  Li  Li7  1  0.20118819  0.79881181  0.79881181  1
  Li  Li8  1  0.79881181  0.20118819  0.20118819  1
  Be  Be9  1  0.83569750  0.64220062  0.15985054  1
  Be  Be10  1  0.36225133  0.15985054  0.64220062  1
  Be  Be11  1  0.64220062  0.83569750  0.36225133  1
  Be  Be12  1  0.15985054  0.36225133  0.83569750  1
  Be  Be13  1  0.36225133  0.64220062  0.83569750  1
  Be  Be14  1  0.83569750  0.15985054  0.36225133  1
  Be  Be15  1  0.15985054  0.83569750  0.64220062  1
  Be  Be16  1  0.64220062  0.36225133  0.15985054  1
  Be  Be17  1  0.15985054  0.64220062  0.36225133  1
  Be  Be18  1  0.64220062  0.15985054  0.83569750  1
  Be  Be19  1  0.36225133  0.83569750  0.15985054  1
  Be  Be20  1  0.83569750  0.36225133  0.64220062  1
  B  B21  1  0.50000000  0.50000000  0.50000000  1
