# generated using pymatgen
data_H7He2Li12
_symmetry_space_group_name_H-M   'P 1'
_cell_length_a   10.80677210
_cell_length_b   10.80684964
_cell_length_c   4.22543913
_cell_angle_alpha   90.00000000
_cell_angle_beta   90.00000000
_cell_angle_gamma   120.00142163
_symmetry_Int_Tables_number   1
_chemical_formula_structural   H7He2Li12
_chemical_formula_sum   'H7 He2 Li12'
_cell_volume   427.35753156
_cell_formula_units_Z   1
loop_
 _symmetry_equiv_pos_site_id
 _symmetry_equiv_pos_as_xyz
  1  'x, y, z'
loop_
 _atom_site_type_symbol
 _atom_site_label
 _atom_site_symmetry_multiplicity
 _atom_site_fract_x
 _atom_site_fract_y
 _atom_site_fract_z
 _atom_site_occupancy
  H  H0  1  0.40067630  0.11279155  0.50000000  1
  H  H1  1  0.88720903  0.28788417  0.50000000  1
  H  H2  1  0.71211672  0.59933175  0.50000000  1
  H  H3  1  0.10887226  0.69849932  0.00000000  1
  H  H4  1  0.30149799  0.41036855  0.00000000  1
  H  H5  1  0.58962275  0.89112314  0.00000000  1
  H  H6  1  0.99999839  0.00000132  0.00000000  1
  He  He7  1  0.33332641  0.66665433  0.50000000  1
  He  He8  1  0.66667425  0.33334864  0.00000000  1
  Li  Li9  1  0.43677858  0.38776389  0.50000000  1
  Li  Li10  1  0.61223159  0.04900757  0.50000000  1
  Li  Li11  1  0.95099107  0.56322702  0.50000000  1
  Li  Li12  1  0.11935193  0.90342288  0.50000000  1
  Li  Li13  1  0.09658048  0.21592450  0.50000000  1
  Li  Li14  1  0.78407434  0.88065612  0.50000000  1
  Li  Li15  1  0.27613546  0.15601381  0.00000000  1
  Li  Li16  1  0.84398116  0.12011663  0.00000000  1
  Li  Li17  1  0.87988447  0.72386888  0.00000000  1
  Li  Li18  1  0.36722040  0.93608701  0.00000000  1
  Li  Li19  1  0.06390734  0.43112289  0.00000000  1
  Li  Li20  1  0.56886908  0.63278603  0.00000000  1
