# generated using pymatgen
data_H2He3
_symmetry_space_group_name_H-M   'P 1'
_cell_length_a   3.88279561
_cell_length_b   3.88246781
_cell_length_c   6.12387001
_cell_angle_alpha   89.99607234
_cell_angle_beta   90.00000000
_cell_angle_gamma   120.00279297
_symmetry_Int_Tables_number   1
_chemical_formula_structural   H2He3
_chemical_formula_sum   'H2 He3'
_cell_volume   79.94600440
_cell_formula_units_Z   1
loop_
 _symmetry_equiv_pos_site_id
 _symmetry_equiv_pos_as_xyz
  1  'x, y, z'
loop_
 _atom_site_type_symbol
 _atom_site_label
 _atom_site_symmetry_multiplicity
 _atom_site_fract_x
 _atom_site_fract_y
 _atom_site_fract_z
 _atom_site_occupancy
  H  H0  1  0.66668357  0.33336715  0.24657161  1
  H  H1  1  0.33331643  0.66663285  0.75342839  1
  He  He2  1  0.00000000  -0.00000000  0.00000000  1
  He  He3  1  0.66667256  0.33334511  0.64684202  1
  He  He4  1  0.33332744  0.66665489  0.35315798  1
