# generated using pymatgen
data_H3He9Li2Be
_symmetry_space_group_name_H-M   'P 1'
_cell_length_a   5.99537821
_cell_length_b   5.99537821
_cell_length_c   14.67877972
_cell_angle_alpha   90.00000000
_cell_angle_beta   90.00000000
_cell_angle_gamma   120.00038700
_symmetry_Int_Tables_number   1
_chemical_formula_structural   H3He9Li2Be
_chemical_formula_sum   'H6 He18 Li4 Be2'
_cell_volume   456.93251301
_cell_formula_units_Z   2
loop_
 _symmetry_equiv_pos_site_id
 _symmetry_equiv_pos_as_xyz
  1  'x, y, z'
loop_
 _atom_site_type_symbol
 _atom_site_label
 _atom_site_symmetry_multiplicity
 _atom_site_fract_x
 _atom_site_fract_y
 _atom_site_fract_z
 _atom_site_occupancy
  H  H0  1  0.00000112  0.99999888  0.25000000  1
  H  H1  1  0.99999888  0.00000112  0.75000000  1
  H  H2  1  0.33333027  0.66666973  0.90344826  1
  H  H3  1  0.66666973  0.33333027  0.40344826  1
  H  H4  1  0.66666973  0.33333027  0.09655174  1
  H  H5  1  0.33333027  0.66666973  0.59655174  1
  He  He6  1  0.48845566  0.97691567  0.25000000  1
  He  He7  1  0.02308433  0.51154434  0.25000000  1
  He  He8  1  0.48845504  0.51154496  0.25000000  1
  He  He9  1  0.51154434  0.02308433  0.75000000  1
  He  He10  1  0.97691567  0.48845566  0.75000000  1
  He  He11  1  0.51154496  0.48845504  0.75000000  1
  He  He12  1  0.17550289  0.35101621  0.41156123  1
  He  He13  1  0.64898379  0.82449711  0.41156123  1
  He  He14  1  0.17550754  0.82449246  0.41156166  1
  He  He15  1  0.82449711  0.64898379  0.91156123  1
  He  He16  1  0.35101621  0.17550289  0.91156123  1
  He  He17  1  0.82449246  0.17550754  0.91156166  1
  He  He18  1  0.35101621  0.17550289  0.58843877  1
  He  He19  1  0.82449711  0.64898379  0.58843877  1
  He  He20  1  0.82449246  0.17550754  0.58843834  1
  He  He21  1  0.64898379  0.82449711  0.08843877  1
  He  He22  1  0.17550289  0.35101621  0.08843877  1
  He  He23  1  0.17550754  0.82449246  0.08843834  1
  Li  Li24  1  0.33333227  0.66666773  0.16165693  1
  Li  Li25  1  0.66666773  0.33333227  0.66165693  1
  Li  Li26  1  0.66666773  0.33333227  0.83834307  1
  Li  Li27  1  0.33333227  0.66666773  0.33834307  1
  Be  Be28  1  0.00000000  -0.00000000  0.00000000  1
  Be  Be29  1  0.00000000  -0.00000000  0.50000000  1
