# generated using pymatgen
data_H3He4Li
_symmetry_space_group_name_H-M   'P 1'
_cell_length_a   6.14381859
_cell_length_b   6.14381859
_cell_length_c   6.14381859
_cell_angle_alpha   130.84663006
_cell_angle_beta   130.84663006
_cell_angle_gamma   72.05686520
_symmetry_Int_Tables_number   1
_chemical_formula_structural   H3He4Li
_chemical_formula_sum   'H3 He4 Li1'
_cell_volume   129.77064168
_cell_formula_units_Z   1
loop_
 _symmetry_equiv_pos_site_id
 _symmetry_equiv_pos_as_xyz
  1  'x, y, z'
loop_
 _atom_site_type_symbol
 _atom_site_label
 _atom_site_symmetry_multiplicity
 _atom_site_fract_x
 _atom_site_fract_y
 _atom_site_fract_z
 _atom_site_occupancy
  H  H0  1  0.25000000  0.75000000  0.50000000  1
  H  H1  1  0.75000000  0.25000000  0.50000000  1
  H  H2  1  0.50000000  0.50000000  0.00000000  1
  He  He3  1  0.29988003  0.90260257  0.00000000  1
  He  He4  1  0.90260257  0.29988003  0.00000000  1
  He  He5  1  0.70011997  0.70011997  0.60272254  1
  He  He6  1  0.09739743  0.09739743  0.39727746  1
  Li  Li7  1  0.00000000  0.00000000  0.00000000  1
