# generated using pymatgen
data_HHe3
_symmetry_space_group_name_H-M   'P 1'
_cell_length_a   9.94762361
_cell_length_b   9.94762361
_cell_length_c   9.94762361
_cell_angle_alpha   36.21923342
_cell_angle_beta   36.21923342
_cell_angle_gamma   36.21923342
_symmetry_Int_Tables_number   1
_chemical_formula_structural   HHe3
_chemical_formula_sum   'H4 He12'
_cell_volume   307.51322353
_cell_formula_units_Z   4
loop_
 _symmetry_equiv_pos_site_id
 _symmetry_equiv_pos_as_xyz
  1  'x, y, z'
loop_
 _atom_site_type_symbol
 _atom_site_label
 _atom_site_symmetry_multiplicity
 _atom_site_fract_x
 _atom_site_fract_y
 _atom_site_fract_z
 _atom_site_occupancy
  H  H0  1  0.12983104  0.12983104  0.12983104  1
  H  H1  1  0.87016896  0.87016896  0.87016896  1
  H  H2  1  0.28789300  0.28789300  0.28789300  1
  H  H3  1  0.71210700  0.71210700  0.71210700  1
  He  He4  1  0.16787491  0.60240992  0.60240992  1
  He  He5  1  0.60240992  0.16787491  0.60240992  1
  He  He6  1  0.60240992  0.60240992  0.16787491  1
  He  He7  1  0.83212509  0.39759008  0.39759008  1
  He  He8  1  0.39759008  0.39759008  0.83212509  1
  He  He9  1  0.39759008  0.83212509  0.39759008  1
  He  He10  1  0.28846164  0.79337387  0.79337387  1
  He  He11  1  0.79337387  0.28846164  0.79337387  1
  He  He12  1  0.79337387  0.79337387  0.28846164  1
  He  He13  1  0.71153836  0.20662613  0.20662613  1
  He  He14  1  0.20662613  0.20662613  0.71153836  1
  He  He15  1  0.20662613  0.71153836  0.20662613  1
