# generated using pymatgen
data_HHe4Li2
_symmetry_space_group_name_H-M   'P 1'
_cell_length_a   8.85081635
_cell_length_b   8.85081635
_cell_length_c   6.17547685
_cell_angle_alpha   90.00000000
_cell_angle_beta   90.00000000
_cell_angle_gamma   90.00000000
_symmetry_Int_Tables_number   1
_chemical_formula_structural   HHe4Li2
_chemical_formula_sum   'H4 He16 Li8'
_cell_volume   483.76802138
_cell_formula_units_Z   4
loop_
 _symmetry_equiv_pos_site_id
 _symmetry_equiv_pos_as_xyz
  1  'x, y, z'
loop_
 _atom_site_type_symbol
 _atom_site_label
 _atom_site_symmetry_multiplicity
 _atom_site_fract_x
 _atom_site_fract_y
 _atom_site_fract_z
 _atom_site_occupancy
  H  H0  1  0.00000000  0.50000000  0.25000000  1
  H  H1  1  0.50000000  0.00000000  0.75000000  1
  H  H2  1  0.00000000  0.50000000  0.75000000  1
  H  H3  1  0.50000000  -0.00000000  0.25000000  1
  He  He4  1  0.68013547  0.18013547  0.25000000  1
  He  He5  1  0.31986453  0.81986453  0.25000000  1
  He  He6  1  0.81986453  0.68013547  0.75000000  1
  He  He7  1  0.18013547  0.31986453  0.75000000  1
  He  He8  1  0.31986453  0.81986453  0.75000000  1
  He  He9  1  0.68013547  0.18013547  0.75000000  1
  He  He10  1  0.18013547  0.31986453  0.25000000  1
  He  He11  1  0.81986453  0.68013547  0.25000000  1
  He  He12  1  0.09958305  0.64171037  0.00000000  1
  He  He13  1  0.90041695  0.35828963  -0.00000000  1
  He  He14  1  0.35828963  0.09958305  0.50000000  1
  He  He15  1  0.64171037  0.90041695  0.50000000  1
  He  He16  1  0.40041695  0.14171037  0.00000000  1
  He  He17  1  0.59958305  0.85828963  -0.00000000  1
  He  He18  1  0.14171037  0.59958305  0.50000000  1
  He  He19  1  0.85828963  0.40041695  0.50000000  1
  Li  Li20  1  0.18062497  0.16963191  0.00000000  1
  Li  Li21  1  0.81937503  0.83036809  -0.00000000  1
  Li  Li22  1  0.83036809  0.18062497  0.50000000  1
  Li  Li23  1  0.16963191  0.81937503  0.50000000  1
  Li  Li24  1  0.31937503  0.66963191  0.00000000  1
  Li  Li25  1  0.68062497  0.33036809  -0.00000000  1
  Li  Li26  1  0.66963191  0.68062497  0.50000000  1
  Li  Li27  1  0.33036809  0.31937503  0.50000000  1
