# generated using pymatgen
data_H2HeLi2
_symmetry_space_group_name_H-M   'P 1'
_cell_length_a   4.10828425
_cell_length_b   4.10828425
_cell_length_c   16.99109824
_cell_angle_alpha   90.00000000
_cell_angle_beta   90.00000000
_cell_angle_gamma   120.00028037
_symmetry_Int_Tables_number   1
_chemical_formula_structural   H2HeLi2
_chemical_formula_sum   'H4 He2 Li4'
_cell_volume   248.35438012
_cell_formula_units_Z   2
loop_
 _symmetry_equiv_pos_site_id
 _symmetry_equiv_pos_as_xyz
  1  'x, y, z'
loop_
 _atom_site_type_symbol
 _atom_site_label
 _atom_site_symmetry_multiplicity
 _atom_site_fract_x
 _atom_site_fract_y
 _atom_site_fract_z
 _atom_site_occupancy
  H  H0  1  0.33333380  0.66666620  0.00925616  1
  H  H1  1  0.66666620  0.33333380  0.50925616  1
  H  H2  1  0.66666620  0.33333380  0.99074384  1
  H  H3  1  0.33333380  0.66666620  0.49074384  1
  He  He4  1  0.33331515  0.66668485  0.75000000  1
  He  He5  1  0.66668485  0.33331515  0.25000000  1
  Li  Li6  1  0.00000330  0.99999670  0.10788972  1
  Li  Li7  1  0.99999670  0.00000330  0.60788972  1
  Li  Li8  1  0.99999670  0.00000330  0.89211028  1
  Li  Li9  1  0.00000330  0.99999670  0.39211028  1
