# generated using pymatgen
data_H6HeLiBe7
_symmetry_space_group_name_H-M   'P 1'
_cell_length_a   7.78107110
_cell_length_b   7.78107110
_cell_length_c   5.64278271
_cell_angle_alpha   90.00000000
_cell_angle_beta   90.00000000
_cell_angle_gamma   120.01680750
_symmetry_Int_Tables_number   1
_chemical_formula_structural   H6HeLiBe7
_chemical_formula_sum   'H12 He2 Li2 Be14'
_cell_volume   295.82109980
_cell_formula_units_Z   2
loop_
 _symmetry_equiv_pos_site_id
 _symmetry_equiv_pos_as_xyz
  1  'x, y, z'
loop_
 _atom_site_type_symbol
 _atom_site_label
 _atom_site_symmetry_multiplicity
 _atom_site_fract_x
 _atom_site_fract_y
 _atom_site_fract_z
 _atom_site_occupancy
  H  H0  1  0.33114416  0.26608318  0.95729191  1
  H  H1  1  0.73392214  0.06502467  0.95728270  1
  H  H2  1  0.93492391  0.66887661  0.95728723  1
  H  H3  1  0.66885584  0.73391682  0.45729191  1
  H  H4  1  0.26607786  0.93497533  0.45728270  1
  H  H5  1  0.06507609  0.33112339  0.45728723  1
  H  H6  1  0.73391682  0.66885584  0.95729191  1
  H  H7  1  0.93497533  0.26607786  0.95728270  1
  H  H8  1  0.33112339  0.06507609  0.95728723  1
  H  H9  1  0.26608318  0.33114416  0.45729191  1
  H  H10  1  0.06502467  0.73392214  0.45728270  1
  H  H11  1  0.66887661  0.93492391  0.45728723  1
  He  He12  1  0.00000388  0.99999612  0.21975207  1
  He  He13  1  0.99999612  0.00000388  0.71975207  1
  Li  Li14  1  0.33329416  0.66670584  0.00161630  1
  Li  Li15  1  0.66670584  0.33329416  0.50161630  1
  Be  Be16  1  0.33332957  0.66667043  0.28700120  1
  Be  Be17  1  0.66667043  0.33332957  0.78700120  1
  Be  Be18  1  0.44729182  0.55270818  0.90801583  1
  Be  Be19  1  0.44731714  0.89458301  0.90805069  1
  Be  Be20  1  0.10541699  0.55268286  0.90805069  1
  Be  Be21  1  0.55270818  0.44729182  0.40801583  1
  Be  Be22  1  0.55268286  0.10541699  0.40805069  1
  Be  Be23  1  0.89458301  0.44731714  0.40805069  1
  Be  Be24  1  0.12158423  0.87841577  0.46836415  1
  Be  Be25  1  0.12159839  0.24318122  0.46836270  1
  Be  Be26  1  0.75681878  0.87840161  0.46836270  1
  Be  Be27  1  0.87841577  0.12158423  0.96836415  1
  Be  Be28  1  0.87840161  0.75681878  0.96836270  1
  Be  Be29  1  0.24318122  0.12159839  0.96836270  1
