# generated using pymatgen
data_H2He5Li
_symmetry_space_group_name_H-M   'P 1'
_cell_length_a   5.61194917
_cell_length_b   7.87353614
_cell_length_c   7.97770255
_cell_angle_alpha   90.00000000
_cell_angle_beta   90.00000000
_cell_angle_gamma   90.00000000
_symmetry_Int_Tables_number   1
_chemical_formula_structural   H2He5Li
_chemical_formula_sum   'H8 He20 Li4'
_cell_volume   352.50184409
_cell_formula_units_Z   4
loop_
 _symmetry_equiv_pos_site_id
 _symmetry_equiv_pos_as_xyz
  1  'x, y, z'
loop_
 _atom_site_type_symbol
 _atom_site_label
 _atom_site_symmetry_multiplicity
 _atom_site_fract_x
 _atom_site_fract_y
 _atom_site_fract_z
 _atom_site_occupancy
  H  H0  1  0.75825278  0.00000000  0.00000000  1
  H  H1  1  0.74174722  0.50000000  0.50000000  1
  H  H2  1  0.24174722  0.00000000  0.00000000  1
  H  H3  1  0.25825278  0.50000000  0.50000000  1
  H  H4  1  0.50000000  0.37072911  0.86094326  1
  H  H5  1  0.50000000  0.62927089  0.13905674  1
  H  H6  1  0.00000000  0.12927089  0.36094326  1
  H  H7  1  0.00000000  0.87072911  0.63905674  1
  He  He8  1  0.50000000  0.42424322  0.63721551  1
  He  He9  1  0.50000000  0.57575678  0.36278449  1
  He  He10  1  0.00000000  0.07575678  0.13721551  1
  He  He11  1  0.00000000  0.92424322  0.86278449  1
  He  He12  1  0.00000000  0.42404791  0.63619298  1
  He  He13  1  0.00000000  0.57595209  0.36380702  1
  He  He14  1  0.50000000  0.07595209  0.13619298  1
  He  He15  1  0.50000000  0.92404791  0.86380702  1
  He  He16  1  0.00000000  0.10258003  0.59942636  1
  He  He17  1  0.00000000  0.89741997  0.40057364  1
  He  He18  1  0.50000000  0.39741997  0.09942636  1
  He  He19  1  0.50000000  0.60258003  0.90057364  1
  He  He20  1  0.76041881  0.23112844  0.86594268  1
  He  He21  1  0.76041881  0.76887156  0.13405732  1
  He  He22  1  0.73958119  0.26887156  0.36594268  1
  He  He23  1  0.73958119  0.73112844  0.63405732  1
  He  He24  1  0.23958119  0.76887156  0.13405732  1
  He  He25  1  0.23958119  0.23112844  0.86594268  1
  He  He26  1  0.26041881  0.73112844  0.63405732  1
  He  He27  1  0.26041881  0.26887156  0.36594268  1
  Li  Li28  1  0.00000000  0.24590549  0.74777971  1
  Li  Li29  1  0.00000000  0.75409451  0.25222029  1
  Li  Li30  1  0.50000000  0.25409451  0.24777971  1
  Li  Li31  1  0.50000000  0.74590549  0.75222029  1
