# generated using pymatgen
data_H6HeLiBe2
_symmetry_space_group_name_H-M   'P 1'
_cell_length_a   10.26742879
_cell_length_b   10.26742879
_cell_length_c   10.26742879
_cell_angle_alpha   33.81407226
_cell_angle_beta   33.81407226
_cell_angle_gamma   33.81407226
_symmetry_Int_Tables_number   1
_chemical_formula_structural   H6HeLiBe2
_chemical_formula_sum   'H12 He2 Li2 Be4'
_cell_volume   298.70459889
_cell_formula_units_Z   2
loop_
 _symmetry_equiv_pos_site_id
 _symmetry_equiv_pos_as_xyz
  1  'x, y, z'
loop_
 _atom_site_type_symbol
 _atom_site_label
 _atom_site_symmetry_multiplicity
 _atom_site_fract_x
 _atom_site_fract_y
 _atom_site_fract_z
 _atom_site_occupancy
  H  H0  1  0.83088215  0.39435940  0.39435940  1
  H  H1  1  0.39435940  0.39435940  0.83088215  1
  H  H2  1  0.39435940  0.83088215  0.39435940  1
  H  H3  1  0.16911785  0.60564060  0.60564060  1
  H  H4  1  0.60564060  0.16911785  0.60564060  1
  H  H5  1  0.60564060  0.60564060  0.16911785  1
  H  H6  1  0.27661939  0.80378686  0.80378686  1
  H  H7  1  0.80378686  0.80378686  0.27661939  1
  H  H8  1  0.80378686  0.27661939  0.80378686  1
  H  H9  1  0.72338061  0.19621314  0.19621314  1
  H  H10  1  0.19621314  0.72338061  0.19621314  1
  H  H11  1  0.19621314  0.19621314  0.72338061  1
  He  He12  1  -0.00000000  -0.00000000  -0.00000000  1
  He  He13  1  0.50000000  0.50000000  0.50000000  1
  Li  Li14  1  0.59425513  0.59425513  0.59425513  1
  Li  Li15  1  0.40574487  0.40574487  0.40574487  1
  Be  Be16  1  0.87145758  0.87145758  0.87145758  1
  Be  Be17  1  0.12854242  0.12854242  0.12854242  1
  Be  Be18  1  0.71718724  0.71718724  0.71718724  1
  Be  Be19  1  0.28281276  0.28281276  0.28281276  1
