# generated using pymatgen
data_H2He4Li
_symmetry_space_group_name_H-M   'P 1'
_cell_length_a   9.02575067
_cell_length_b   7.43713936
_cell_length_c   7.23065075
_cell_angle_alpha   99.21534765
_cell_angle_beta   93.29981275
_cell_angle_gamma   98.66444467
_symmetry_Int_Tables_number   1
_chemical_formula_structural   H2He4Li
_chemical_formula_sum   'H8 He16 Li4'
_cell_volume   471.96854303
_cell_formula_units_Z   4
loop_
 _symmetry_equiv_pos_site_id
 _symmetry_equiv_pos_as_xyz
  1  'x, y, z'
loop_
 _atom_site_type_symbol
 _atom_site_label
 _atom_site_symmetry_multiplicity
 _atom_site_fract_x
 _atom_site_fract_y
 _atom_site_fract_z
 _atom_site_occupancy
  H  H0  1  0.12426950  0.37186337  0.50289627  1
  H  H1  1  0.87573050  0.62813663  0.49710373  1
  H  H2  1  0.59221652  0.19865679  0.73496401  1
  H  H3  1  0.40778348  0.80134321  0.26503599  1
  H  H4  1  0.05857877  0.55615779  0.19155693  1
  H  H5  1  0.94142123  0.44384221  0.80844307  1
  H  H6  1  0.87893966  0.30703328  0.29319824  1
  H  H7  1  0.12106034  0.69296672  0.70680176  1
  He  He8  1  0.25747451  0.51435107  0.11604967  1
  He  He9  1  0.74252549  0.48564893  0.88395033  1
  He  He10  1  0.76315996  0.49114718  0.27122087  1
  He  He11  1  0.23684004  0.50885282  0.72877913  1
  He  He12  1  0.42666365  0.28056450  0.83394039  1
  He  He13  1  0.57333635  0.71943550  0.16605961  1
  He  He14  1  0.97993585  0.84361257  0.65604856  1
  He  He15  1  0.02006415  0.15638743  0.34395144  1
  He  He16  1  0.07169022  0.19748509  0.75890067  1
  He  He17  1  0.92830978  0.80251491  0.24109933  1
  He  He18  1  0.26839198  0.93779228  0.36805268  1
  He  He19  1  0.73160802  0.06220772  0.63194732  1
  He  He20  1  0.22990018  0.15410897  0.08042828  1
  He  He21  1  0.77009982  0.84589103  0.91957172  1
  He  He22  1  0.10920644  0.80586467  -0.00520407  1
  He  He23  1  0.89079356  0.19413533  0.00520407  1
  Li  Li24  1  0.25145038  0.33811063  0.90451563  1
  Li  Li25  1  0.74854962  0.66188937  0.09548437  1
  Li  Li26  1  0.12332086  -0.01944292  0.20498229  1
  Li  Li27  1  0.87667914  0.01944292  0.79501771  1
