# generated using pymatgen
data_H4He12Li3Be2
_symmetry_space_group_name_H-M   'P 1'
_cell_length_a   9.18298856
_cell_length_b   9.18298856
_cell_length_c   9.18298856
_cell_angle_alpha   61.00329392
_cell_angle_beta   61.00329392
_cell_angle_gamma   61.00329392
_symmetry_Int_Tables_number   1
_chemical_formula_structural   H4He12Li3Be2
_chemical_formula_sum   'H8 He24 Li6 Be4'
_cell_volume   559.94105593
_cell_formula_units_Z   2
loop_
 _symmetry_equiv_pos_site_id
 _symmetry_equiv_pos_as_xyz
  1  'x, y, z'
loop_
 _atom_site_type_symbol
 _atom_site_label
 _atom_site_symmetry_multiplicity
 _atom_site_fract_x
 _atom_site_fract_y
 _atom_site_fract_z
 _atom_site_occupancy
  H  H0  1  0.00000000  -0.00000000  0.00000000  1
  H  H1  1  0.50000000  0.50000000  0.50000000  1
  H  H2  1  0.61675604  0.25000000  0.88324396  1
  H  H3  1  0.88324396  0.61675604  0.25000000  1
  H  H4  1  0.25000000  0.88324396  0.61675604  1
  H  H5  1  0.38324396  0.75000000  0.11675604  1
  H  H6  1  0.11675604  0.38324396  0.75000000  1
  H  H7  1  0.75000000  0.11675604  0.38324396  1
  He  He8  1  0.26802824  0.06598237  0.91657617  1
  He  He9  1  0.91657617  0.26802824  0.06598237  1
  He  He10  1  0.06598237  0.91657617  0.26802824  1
  He  He11  1  0.58342383  0.43401763  0.23197176  1
  He  He12  1  0.43401763  0.23197176  0.58342383  1
  He  He13  1  0.23197176  0.58342383  0.43401763  1
  He  He14  1  0.73197176  0.93401763  0.08342383  1
  He  He15  1  0.08342383  0.73197176  0.93401763  1
  He  He16  1  0.93401763  0.08342383  0.73197176  1
  He  He17  1  0.41657617  0.56598237  0.76802824  1
  He  He18  1  0.56598237  0.76802824  0.41657617  1
  He  He19  1  0.76802824  0.41657617  0.56598237  1
  He  He20  1  0.87825680  0.70380786  0.48985901  1
  He  He21  1  0.48985901  0.87825680  0.70380786  1
  He  He22  1  0.70380786  0.48985901  0.87825680  1
  He  He23  1  0.01014099  0.79619214  0.62174320  1
  He  He24  1  0.79619214  0.62174320  0.01014099  1
  He  He25  1  0.62174320  0.01014099  0.79619214  1
  He  He26  1  0.12174320  0.29619214  0.51014099  1
  He  He27  1  0.51014099  0.12174320  0.29619214  1
  He  He28  1  0.29619214  0.51014099  0.12174320  1
  He  He29  1  0.98985901  0.20380786  0.37825680  1
  He  He30  1  0.20380786  0.37825680  0.98985901  1
  He  He31  1  0.37825680  0.98985901  0.20380786  1
  Li  Li32  1  0.04792213  0.75000000  0.45207787  1
  Li  Li33  1  0.45207787  0.04792213  0.75000000  1
  Li  Li34  1  0.75000000  0.45207787  0.04792213  1
  Li  Li35  1  0.95207787  0.25000000  0.54792213  1
  Li  Li36  1  0.54792213  0.95207787  0.25000000  1
  Li  Li37  1  0.25000000  0.54792213  0.95207787  1
  Be  Be38  1  0.14665147  0.14665147  0.14665147  1
  Be  Be39  1  0.35334853  0.35334853  0.35334853  1
  Be  Be40  1  0.85334853  0.85334853  0.85334853  1
  Be  Be41  1  0.64665147  0.64665147  0.64665147  1
