# generated using pymatgen
data_HHe4Li
_symmetry_space_group_name_H-M   'P 1'
_cell_length_a   4.99299006
_cell_length_b   4.99299006
_cell_length_c   11.21719620
_cell_angle_alpha   90.00000000
_cell_angle_beta   90.00000000
_cell_angle_gamma   120.00000000
_symmetry_Int_Tables_number   1
_chemical_formula_structural   HHe4Li
_chemical_formula_sum   'H3 He12 Li3'
_cell_volume   242.17892738
_cell_formula_units_Z   3
loop_
 _symmetry_equiv_pos_site_id
 _symmetry_equiv_pos_as_xyz
  1  'x, y, z'
loop_
 _atom_site_type_symbol
 _atom_site_label
 _atom_site_symmetry_multiplicity
 _atom_site_fract_x
 _atom_site_fract_y
 _atom_site_fract_z
 _atom_site_occupancy
  H  H0  1  0.46019644  0.99999905  0.33332171  1
  H  H1  1  0.00000095  0.46019739  0.66665505  1
  H  H2  1  0.53980261  0.53980356  0.99998838  1
  He  He3  1  0.09633505  0.68826114  0.27285927  1
  He  He4  1  0.31173886  0.40807392  0.60619260  1
  He  He5  1  0.59192608  0.90366495  0.93952593  1
  He  He6  1  0.68826679  0.09634103  0.72711748  1
  He  He7  1  0.40807424  0.31173321  0.39378415  1
  He  He8  1  0.90365897  0.59192576  0.06045081  1
  He  He9  1  0.14376462  0.73227375  0.79270187  1
  He  He10  1  0.26772625  0.41149087  0.12603521  1
  He  He11  1  0.58850913  0.85623538  0.45936854  1
  He  He12  1  0.73227816  0.14376693  0.20727522  1
  He  He13  1  0.41148877  0.26772184  0.87394189  1
  He  He14  1  0.85623307  0.58851123  0.54060855  1
  Li  Li15  1  0.46118331  0.00000173  0.83332445  1
  Li  Li16  1  -0.00000173  0.46118158  0.16665778  1
  Li  Li17  1  0.53881842  0.53881669  0.49999111  1
