# generated using pymatgen
data_H2He7Li2
_symmetry_space_group_name_H-M   'P 1'
_cell_length_a   7.39985611
_cell_length_b   7.39985611
_cell_length_c   7.39985611
_cell_angle_alpha   119.98934380
_cell_angle_beta   118.58289457
_cell_angle_gamma   91.24521317
_symmetry_Int_Tables_number   1
_chemical_formula_structural   H2He7Li2
_chemical_formula_sum   'H4 He14 Li4'
_cell_volume   289.48445934
_cell_formula_units_Z   2
loop_
 _symmetry_equiv_pos_site_id
 _symmetry_equiv_pos_as_xyz
  1  'x, y, z'
loop_
 _atom_site_type_symbol
 _atom_site_label
 _atom_site_symmetry_multiplicity
 _atom_site_fract_x
 _atom_site_fract_y
 _atom_site_fract_z
 _atom_site_occupancy
  H  H0  1  0.00000000  0.00000000  0.00000000  1
  H  H1  1  0.50000000  0.50000000  -0.00000000  1
  H  H2  1  0.50000000  0.50000000  0.50000000  1
  H  H3  1  0.50000000  0.00000000  0.00000000  1
  He  He4  1  0.09929904  0.25000000  0.84929904  1
  He  He5  1  0.90070096  0.75000000  0.15070096  1
  He  He6  1  0.67665434  0.40581292  0.27084142  1
  He  He7  1  0.36502850  0.09418708  0.27084142  1
  He  He8  1  0.63497150  0.90581292  0.72915858  1
  He  He9  1  0.32334566  0.59418708  0.72915858  1
  He  He10  1  0.68021621  0.90821566  0.35200640  1
  He  He11  1  0.94379073  0.59178434  0.77200054  1
  He  He12  1  0.05620927  0.82820981  0.64799360  1
  He  He13  1  0.31978379  0.67179019  0.22799946  1
  He  He14  1  0.31978379  0.09178434  0.64799360  1
  He  He15  1  0.05620927  0.40821566  0.22799946  1
  He  He16  1  0.94379073  0.17179019  0.35200640  1
  He  He17  1  0.68021621  0.32820981  0.77200054  1
  Li  Li18  1  -0.00000000  0.50000000  0.00000000  1
  Li  Li19  1  0.00000000  0.00000000  0.50000000  1
  Li  Li20  1  0.50000000  0.00000000  0.50000000  1
  Li  Li21  1  0.00000000  0.50000000  0.50000000  1
