# generated using pymatgen
data_H2He6Li3
_symmetry_space_group_name_H-M   'P 1'
_cell_length_a   9.93494219
_cell_length_b   8.24568665
_cell_length_c   6.36288666
_cell_angle_alpha   107.80369198
_cell_angle_beta   89.48863286
_cell_angle_gamma   90.30188175
_symmetry_Int_Tables_number   1
_chemical_formula_structural   H2He6Li3
_chemical_formula_sum   'H8 He24 Li12'
_cell_volume   496.26597719
_cell_formula_units_Z   4
loop_
 _symmetry_equiv_pos_site_id
 _symmetry_equiv_pos_as_xyz
  1  'x, y, z'
loop_
 _atom_site_type_symbol
 _atom_site_label
 _atom_site_symmetry_multiplicity
 _atom_site_fract_x
 _atom_site_fract_y
 _atom_site_fract_z
 _atom_site_occupancy
  H  H0  1  0.32581072  0.42348546  0.65860427  1
  H  H1  1  0.67418928  0.57651454  0.34139573  1
  H  H2  1  0.08376703  0.89877693  0.16664266  1
  H  H3  1  0.91623297  0.10122307  0.83335734  1
  H  H4  1  0.82440601  0.41430373  0.67982585  1
  H  H5  1  0.17559399  0.58569627  0.32017415  1
  H  H6  1  0.41186611  0.06630698  0.83940055  1
  H  H7  1  0.58813389  0.93369302  0.16059945  1
  He  He8  1  0.39251129  0.28452333  0.52009796  1
  He  He9  1  0.60748871  0.71547667  0.47990204  1
  He  He10  1  0.19594553  0.40629271  0.73010173  1
  He  He11  1  0.80405447  0.59370729  0.26989827  1
  He  He12  1  0.38755082  0.58212159  0.73023285  1
  He  He13  1  0.61244918  0.41787841  0.26976715  1
  He  He14  1  0.94484289  0.90568131  0.17882868  1
  He  He15  1  0.05515711  0.09431869  0.82117132  1
  He  He16  1  0.84022477  0.99350464  0.66440957  1
  He  He17  1  0.15977523  0.00649536  0.33559043  1
  He  He18  1  0.14866477  0.78072728  0.99443316  1
  He  He19  1  0.85133523  0.21927272  0.00556684  1
  He  He20  1  0.88335483  0.30931578  0.48787042  1
  He  He21  1  0.11664517  0.69068422  0.51212958  1
  He  He22  1  0.89555995  0.55472180  0.80382739  1
  He  He23  1  0.10444005  0.44527820  0.19617261  1
  He  He24  1  0.30556169  0.61967173  0.26236435  1
  He  He25  1  0.69443831  0.38032827  0.73763565  1
  He  He26  1  0.44936328  0.91398185  0.16373427  1
  He  He27  1  0.55063672  0.08601815  0.83626573  1
  He  He28  1  0.34972611  0.93542836  0.67846539  1
  He  He29  1  0.65027389  0.06457164  0.32153461  1
  He  He30  1  0.33451024  0.17718209  0.00582497  1
  He  He31  1  0.66548976  0.82281791  0.99417503  1
  Li  Li32  1  0.07872660  0.59870876  0.75166979  1
  Li  Li33  1  0.92127340  0.40129124  0.24833021  1
  Li  Li34  1  0.15955642  0.93184763  0.60297495  1
  Li  Li35  1  0.84044358  0.06815237  0.39702505  1
  Li  Li36  1  0.17666805  0.28206142  0.93987787  1
  Li  Li37  1  0.82333195  0.71793858  0.06012213  1
  Li  Li38  1  0.32459865  0.10531244  0.27476223  1
  Li  Li39  1  0.67540135  0.89468756  0.72523777  1
  Li  Li40  1  0.41732666  0.70999246  0.51973532  1
  Li  Li41  1  0.58267334  0.29000754  0.48026468  1
  Li  Li42  1  0.33761136  0.72036344  0.02427355  1
  Li  Li43  1  0.66238864  0.27963656  0.97572645  1
