# generated using pymatgen
data_HHe3Li
_symmetry_space_group_name_H-M   'P 1'
_cell_length_a   4.39077289
_cell_length_b   4.50865574
_cell_length_c   6.27416917
_cell_angle_alpha   90.00000000
_cell_angle_beta   90.00000000
_cell_angle_gamma   90.00000000
_symmetry_Int_Tables_number   1
_chemical_formula_structural   HHe3Li
_chemical_formula_sum   'H4 He12 Li4'
_cell_volume   124.20648574
_cell_formula_units_Z   4
loop_
 _symmetry_equiv_pos_site_id
 _symmetry_equiv_pos_as_xyz
  1  'x, y, z'
loop_
 _atom_site_type_symbol
 _atom_site_label
 _atom_site_symmetry_multiplicity
 _atom_site_fract_x
 _atom_site_fract_y
 _atom_site_fract_z
 _atom_site_occupancy
  H  H0  1  0.50000000  0.00000000  0.00000000  1
  H  H1  1  0.00000000  0.50000000  0.00000000  1
  H  H2  1  0.50000000  0.00000000  0.50000000  1
  H  H3  1  0.00000000  0.50000000  0.50000000  1
  He  He4  1  0.70771032  0.70724345  0.03695106  1
  He  He5  1  0.20771032  0.79275655  0.96304894  1
  He  He6  1  0.29228968  0.29275655  0.53695106  1
  He  He7  1  0.79228968  0.20724345  0.46304894  1
  He  He8  1  0.29228968  0.29275655  0.96304894  1
  He  He9  1  0.79228968  0.20724345  0.03695106  1
  He  He10  1  0.70771032  0.70724345  0.46304894  1
  He  He11  1  0.20771032  0.79275655  0.53695106  1
  He  He12  1  0.57231418  0.98350890  0.75000000  1
  He  He13  1  0.07231418  0.51649110  0.25000000  1
  He  He14  1  0.42768582  0.01649110  0.25000000  1
  He  He15  1  0.92768582  0.48350890  0.75000000  1
  Li  Li16  1  0.50987455  0.45128312  0.25000000  1
  Li  Li17  1  0.00987455  0.04871688  0.75000000  1
  Li  Li18  1  0.49012545  0.54871688  0.75000000  1
  Li  Li19  1  0.99012545  0.95128312  0.25000000  1
