# generated using pymatgen
data_HHe
_symmetry_space_group_name_H-M   'P 1'
_cell_length_a   3.20195842
_cell_length_b   5.46310786
_cell_length_c   11.79028350
_cell_angle_alpha   90.00000000
_cell_angle_beta   90.00000000
_cell_angle_gamma   90.00000000
_symmetry_Int_Tables_number   1
_chemical_formula_structural   HHe
_chemical_formula_sum   'H4 He4'
_cell_volume   206.24323420
_cell_formula_units_Z   4
loop_
 _symmetry_equiv_pos_site_id
 _symmetry_equiv_pos_as_xyz
  1  'x, y, z'
loop_
 _atom_site_type_symbol
 _atom_site_label
 _atom_site_symmetry_multiplicity
 _atom_site_fract_x
 _atom_site_fract_y
 _atom_site_fract_z
 _atom_site_occupancy
  H  H0  1  0.02030402  0.75000000  0.16343652  1
  H  H1  1  0.97969598  0.25000000  0.83656348  1
  H  H2  1  0.97969598  0.25000000  0.66343652  1
  H  H3  1  0.02030402  0.75000000  0.33656348  1
  He  He4  1  0.76242060  0.75000000  0.88477983  1
  He  He5  1  0.23757940  0.25000000  0.11522017  1
  He  He6  1  0.23757940  0.25000000  0.38477983  1
  He  He7  1  0.76242060  0.75000000  0.61522017  1
