# generated using pymatgen
data_H3He
_symmetry_space_group_name_H-M   'P 1'
_cell_length_a   5.51923578
_cell_length_b   5.51923578
_cell_length_c   25.03379593
_cell_angle_alpha   90.00000000
_cell_angle_beta   90.00000000
_cell_angle_gamma   120.00000000
_symmetry_Int_Tables_number   1
_chemical_formula_structural   H3He
_chemical_formula_sum   'H27 He9'
_cell_volume   660.41242302
_cell_formula_units_Z   9
loop_
 _symmetry_equiv_pos_site_id
 _symmetry_equiv_pos_as_xyz
  1  'x, y, z'
loop_
 _atom_site_type_symbol
 _atom_site_label
 _atom_site_symmetry_multiplicity
 _atom_site_fract_x
 _atom_site_fract_y
 _atom_site_fract_z
 _atom_site_occupancy
  H  H0  1  0.49882712  0.50117288  0.08120842  1
  H  H1  1  0.49882712  0.99765423  0.08120842  1
  H  H2  1  0.00234577  0.50117288  0.08120842  1
  H  H3  1  0.50117288  0.49882712  0.91879158  1
  H  H4  1  0.99765423  0.49882712  0.91879158  1
  H  H5  1  0.50117288  0.00234577  0.91879158  1
  H  H6  1  0.16438752  0.83561248  0.41228267  1
  H  H7  1  0.16438752  0.32877503  0.41228267  1
  H  H8  1  0.67122497  0.83561248  0.41228267  1
  H  H9  1  0.16620571  0.83379429  0.24969470  1
  H  H10  1  0.66758858  0.83379429  0.24969470  1
  H  H11  1  0.16620571  0.33241142  0.24969470  1
  H  H12  1  0.83379429  0.16620571  0.75030530  1
  H  H13  1  0.83379429  0.66758858  0.75030530  1
  H  H14  1  0.33241142  0.16620571  0.75030530  1
  H  H15  1  0.83561248  0.16438752  0.58771733  1
  H  H16  1  0.32877503  0.16438752  0.58771733  1
  H  H17  1  0.83561248  0.67122497  0.58771733  1
  H  H18  1  -0.00000000  -0.00000000  0.32938427  1
  H  H19  1  0.00000000  0.00000000  0.67061573  1
  H  H20  1  0.66666667  0.33333333  0.66906809  1
  H  H21  1  0.66666667  0.33333333  0.00164523  1
  H  H22  1  0.33333333  0.66666667  -0.00164523  1
  H  H23  1  0.33333333  0.66666667  0.33093191  1
  H  H24  1  0.00000000  -0.00000000  0.50000000  1
  H  H25  1  0.66666667  0.33333333  0.83336457  1
  H  H26  1  0.33333333  0.66666667  0.16663543  1
  He  He27  1  -0.00000000  -0.00000000  0.13730462  1
  He  He28  1  0.00000000  0.00000000  0.86269538  1
  He  He29  1  0.66666667  0.33333333  0.47503106  1
  He  He30  1  0.66666667  0.33333333  0.19688156  1
  He  He31  1  0.33333333  0.66666667  0.80311844  1
  He  He32  1  0.33333333  0.66666667  0.52496894  1
  He  He33  1  -0.00000000  -0.00000000  0.00000000  1
  He  He34  1  0.66666667  0.33333333  0.33583114  1
  He  He35  1  0.33333333  0.66666667  0.66416886  1
