# generated using pymatgen
data_HHeLi5Be
_symmetry_space_group_name_H-M   'P 1'
_cell_length_a   7.06260279
_cell_length_b   7.74856971
_cell_length_c   9.72833022
_cell_angle_alpha   65.68921509
_cell_angle_beta   77.28201082
_cell_angle_gamma   74.59029960
_symmetry_Int_Tables_number   1
_chemical_formula_structural   HHeLi5Be
_chemical_formula_sum   'H2 He2 Li10 Be2'
_cell_volume   464.00122768
_cell_formula_units_Z   2
loop_
 _symmetry_equiv_pos_site_id
 _symmetry_equiv_pos_as_xyz
  1  'x, y, z'
loop_
 _atom_site_type_symbol
 _atom_site_label
 _atom_site_symmetry_multiplicity
 _atom_site_fract_x
 _atom_site_fract_y
 _atom_site_fract_z
 _atom_site_occupancy
  H  H0  1  0.61258455  0.34297048  0.30384201  1
  H  H1  1  0.38741545  0.65702952  0.69615799  1
  He  He2  1  0.02174805  0.30068476  0.62912249  1
  He  He3  1  0.97825195  0.69931524  0.37087751  1
  Li  Li4  1  0.21291341  0.87312842  0.28750378  1
  Li  Li5  1  0.78708659  0.12687158  0.71249622  1
  Li  Li6  1  0.07566130  0.39519722  0.36964800  1
  Li  Li7  1  0.92433870  0.60480278  0.63035200  1
  Li  Li8  1  0.30979699  0.14082858  0.71436403  1
  Li  Li9  1  0.69020301  0.85917142  0.28563597  1
  Li  Li10  1  0.06864504  0.76516220  0.01695591  1
  Li  Li11  1  0.93135496  0.23483780  0.98304409  1
  Li  Li12  1  0.43439529  0.20953493  0.03128966  1
  Li  Li13  1  0.56560471  0.79046507  0.96871034  1
  Be  Be14  1  0.24457756  0.01190313  0.00324732  1
  Be  Be15  1  0.75542244  0.98809687  0.99675268  1
