# generated using pymatgen
data_H2
_symmetry_space_group_name_H-M   'P 1'
_cell_length_a   3.36816896
_cell_length_b   3.36816896
_cell_length_c   7.24278250
_cell_angle_alpha   78.08130584
_cell_angle_beta   78.08130584
_cell_angle_gamma   60.82535028
_symmetry_Int_Tables_number   1
_chemical_formula_structural   H2
_chemical_formula_sum   H4
_cell_volume   69.65489715
_cell_formula_units_Z   2
loop_
 _symmetry_equiv_pos_site_id
 _symmetry_equiv_pos_as_xyz
  1  'x, y, z'
loop_
 _atom_site_type_symbol
 _atom_site_label
 _atom_site_symmetry_multiplicity
 _atom_site_fract_x
 _atom_site_fract_y
 _atom_site_fract_z
 _atom_site_occupancy
  H  H0  1  0.94591521  0.94591521  0.09940764  1
  H  H1  1  0.05408479  0.05408479  0.90059236  1
  H  H2  1  0.49285035  0.49285035  0.59973549  1
  H  H3  1  0.50714965  0.50714965  0.40026451  1
