# generated using pymatgen
data_HHe2Li5
_symmetry_space_group_name_H-M   'P 1'
_cell_length_a   4.03457005
_cell_length_b   5.48193789
_cell_length_c   10.27533182
_cell_angle_alpha   90.00000000
_cell_angle_beta   90.00000000
_cell_angle_gamma   90.00000000
_symmetry_Int_Tables_number   1
_chemical_formula_structural   HHe2Li5
_chemical_formula_sum   'H2 He4 Li10'
_cell_volume   227.26221071
_cell_formula_units_Z   2
loop_
 _symmetry_equiv_pos_site_id
 _symmetry_equiv_pos_as_xyz
  1  'x, y, z'
loop_
 _atom_site_type_symbol
 _atom_site_label
 _atom_site_symmetry_multiplicity
 _atom_site_fract_x
 _atom_site_fract_y
 _atom_site_fract_z
 _atom_site_occupancy
  H  H0  1  0.00000000  0.00000000  0.50000000  1
  H  H1  1  0.00000000  0.50000000  0.00000000  1
  He  He2  1  0.50000000  0.38708770  0.64929634  1
  He  He3  1  0.50000000  0.61291230  0.35070366  1
  He  He4  1  0.50000000  0.11291230  0.14929634  1
  He  He5  1  0.50000000  0.88708770  0.85070366  1
  Li  Li6  1  0.00000000  0.00000000  0.00000000  1
  Li  Li7  1  0.00000000  0.50000000  0.50000000  1
  Li  Li8  1  0.00000000  0.63377118  0.77520437  1
  Li  Li9  1  0.00000000  0.36622882  0.22479563  1
  Li  Li10  1  0.00000000  0.86622882  0.27520437  1
  Li  Li11  1  0.00000000  0.13377118  0.72479563  1
  Li  Li12  1  0.50000000  0.33415548  0.89540628  1
  Li  Li13  1  0.50000000  0.66584452  0.10459372  1
  Li  Li14  1  0.50000000  0.16584452  0.39540628  1
  Li  Li15  1  0.50000000  0.83415548  0.60459372  1
