# generated using pymatgen
data_HHe3Li
_symmetry_space_group_name_H-M   'P 1'
_cell_length_a   5.55177137
_cell_length_b   5.55177137
_cell_length_c   5.55177137
_cell_angle_alpha   55.16904636
_cell_angle_beta   55.16904636
_cell_angle_gamma   55.16904636
_symmetry_Int_Tables_number   1
_chemical_formula_structural   HHe3Li
_chemical_formula_sum   'H2 He6 Li2'
_cell_volume   107.40747890
_cell_formula_units_Z   2
loop_
 _symmetry_equiv_pos_site_id
 _symmetry_equiv_pos_as_xyz
  1  'x, y, z'
loop_
 _atom_site_type_symbol
 _atom_site_label
 _atom_site_symmetry_multiplicity
 _atom_site_fract_x
 _atom_site_fract_y
 _atom_site_fract_z
 _atom_site_occupancy
  H  H0  1  0.64383128  0.64383128  0.64383128  1
  H  H1  1  0.35616872  0.35616872  0.35616872  1
  He  He2  1  0.04790290  0.44042392  0.77193630  1
  He  He3  1  0.44042392  0.77193630  0.04790290  1
  He  He4  1  0.77193630  0.04790290  0.44042392  1
  He  He5  1  0.95209710  0.55957608  0.22806370  1
  He  He6  1  0.55957608  0.22806370  0.95209710  1
  He  He7  1  0.22806370  0.95209710  0.55957608  1
  Li  Li8  1  0.85226539  0.85226539  0.85226539  1
  Li  Li9  1  0.14773461  0.14773461  0.14773461  1
