# generated using pymatgen
data_H20He11
_symmetry_space_group_name_H-M   'P 1'
_cell_length_a   6.65725032
_cell_length_b   10.33942881
_cell_length_c   6.59133983
_cell_angle_alpha   93.19004681
_cell_angle_beta   99.62835872
_cell_angle_gamma   93.90142781
_symmetry_Int_Tables_number   1
_chemical_formula_structural   H20He11
_chemical_formula_sum   'H20 He11'
_cell_volume   445.23120635
_cell_formula_units_Z   1
loop_
 _symmetry_equiv_pos_site_id
 _symmetry_equiv_pos_as_xyz
  1  'x, y, z'
loop_
 _atom_site_type_symbol
 _atom_site_label
 _atom_site_symmetry_multiplicity
 _atom_site_fract_x
 _atom_site_fract_y
 _atom_site_fract_z
 _atom_site_occupancy
  H  H0  1  0.33200629  0.03562634  0.87926845  1
  H  H1  1  0.66799371  0.96437366  0.12073155  1
  H  H2  1  0.82889210  0.20202604  0.95512428  1
  H  H3  1  0.17110790  0.79797396  0.04487572  1
  H  H4  1  0.42373415  0.36929435  0.02954996  1
  H  H5  1  0.57626585  0.63070565  0.97045004  1
  H  H6  1  0.93161900  0.57089747  0.15180715  1
  H  H7  1  0.06838100  0.42910253  0.84819285  1
  H  H8  1  0.03459325  0.92941527  0.32984631  1
  H  H9  1  0.96540675  0.07058473  0.67015369  1
  H  H10  1  0.21557143  0.16336709  0.20999363  1
  H  H11  1  0.78442857  0.83663291  0.79000637  1
  H  H12  1  0.79200239  0.33198552  0.28510825  1
  H  H13  1  0.20799761  0.66801448  0.71489175  1
  H  H14  1  0.31714409  0.53662181  0.36872436  1
  H  H15  1  0.68285591  0.46337819  0.63127564  1
  H  H16  1  0.81703533  0.70545000  0.46513243  1
  H  H17  1  0.18296467  0.29455000  0.53486757  1
  H  H18  1  0.41001729  0.87207122  0.53103099  1
  H  H19  1  0.58998271  0.12792878  0.46896901  1
  He  He20  1  -0.00000000  0.00000000  0.00000000  1
  He  He21  1  0.10189119  0.36730579  0.17953611  1
  He  He22  1  0.89810881  0.63269421  0.82046389  1
  He  He23  1  0.54450076  0.17112181  0.12819770  1
  He  He24  1  0.45549924  0.82887819  0.87180230  1
  He  He25  1  0.63145654  0.52148233  0.27628976  1
  He  He26  1  0.36854346  0.47851767  0.72371024  1
  He  He27  1  0.14516279  0.72388768  0.37220038  1
  He  He28  1  0.85483721  0.27611232  0.62779962  1
  He  He29  1  0.73195746  0.92540282  0.46810783  1
  He  He30  1  0.26804254  0.07459718  0.53189217  1
