# generated using pymatgen
data_HHeLi
_symmetry_space_group_name_H-M   'P 1'
_cell_length_a   4.41809349
_cell_length_b   4.41748501
_cell_length_c   7.13782081
_cell_angle_alpha   89.98891533
_cell_angle_beta   90.00000000
_cell_angle_gamma   120.00455667
_symmetry_Int_Tables_number   1
_chemical_formula_structural   HHeLi
_chemical_formula_sum   'H1 He1 Li1'
_cell_volume   120.63860453
_cell_formula_units_Z   1
loop_
 _symmetry_equiv_pos_site_id
 _symmetry_equiv_pos_as_xyz
  1  'x, y, z'
loop_
 _atom_site_type_symbol
 _atom_site_label
 _atom_site_symmetry_multiplicity
 _atom_site_fract_x
 _atom_site_fract_y
 _atom_site_fract_z
 _atom_site_occupancy
  H  H0  1  0.00000188  0.00000376  0.92178203  1
  He  He1  1  0.66665374  0.33330748  0.21467973  1
  Li  Li2  1  0.33334438  0.66668876  0.68343824  1
