# generated using pymatgen
data_HHeLi4Be
_symmetry_space_group_name_H-M   'P 1'
_cell_length_a   8.13482623
_cell_length_b   8.13474082
_cell_length_c   7.78659405
_cell_angle_alpha   90.00000000
_cell_angle_beta   90.00000000
_cell_angle_gamma   120.00050218
_symmetry_Int_Tables_number   1
_chemical_formula_structural   HHeLi4Be
_chemical_formula_sum   'H6 He6 Li24 Be6'
_cell_volume   446.23945635
_cell_formula_units_Z   6
loop_
 _symmetry_equiv_pos_site_id
 _symmetry_equiv_pos_as_xyz
  1  'x, y, z'
loop_
 _atom_site_type_symbol
 _atom_site_label
 _atom_site_symmetry_multiplicity
 _atom_site_fract_x
 _atom_site_fract_y
 _atom_site_fract_z
 _atom_site_occupancy
  H  H0  1  0.32061521  0.33805499  0.39247747  1
  H  H1  1  0.66194514  0.98255905  0.39248151  1
  H  H2  1  0.01743707  0.67938582  0.39248063  1
  H  H3  1  0.67938479  0.66194501  0.89247747  1
  H  H4  1  0.33805486  0.01744095  0.89248151  1
  H  H5  1  0.98256293  0.32061418  0.89248063  1
  He  He6  1  0.00000234  0.00000344  0.23100547  1
  He  He7  1  0.99999766  0.99999656  0.73100547  1
  He  He8  1  0.33331464  0.66668452  0.70119982  1
  He  He9  1  0.66668536  0.33331548  0.20119982  1
  He  He10  1  0.33332472  0.66667069  0.26803751  1
  He  He11  1  0.66667528  0.33332931  0.76803751  1
  Li  Li12  1  0.07102453  0.54303057  0.46600071  1
  Li  Li13  1  0.45693939  0.52797264  0.46599325  1
  Li  Li14  1  0.47200612  0.92897817  0.46600122  1
  Li  Li15  1  0.92897547  0.45696943  0.96600071  1
  Li  Li16  1  0.54306061  0.47202736  0.96599325  1
  Li  Li17  1  0.52799388  0.07102183  0.96600122  1
  Li  Li18  1  0.14076350  0.25478883  0.48998452  1
  Li  Li19  1  0.74520660  0.88594071  0.49000019  1
  Li  Li20  1  0.11405242  0.85926407  0.48999890  1
  Li  Li21  1  0.85923650  0.74521117  0.98998452  1
  Li  Li22  1  0.25479340  0.11405929  0.99000019  1
  Li  Li23  1  0.88594758  0.14073593  0.98999890  1
  Li  Li24  1  0.27725075  0.36724855  0.21294939  1
  Li  Li25  1  0.63275390  0.91000027  0.21292196  1
  Li  Li26  1  0.08998999  0.72275428  0.21292597  1
  Li  Li27  1  0.72274925  0.63275145  0.71294939  1
  Li  Li28  1  0.36724610  0.08999973  0.71292196  1
  Li  Li29  1  0.91001001  0.27724572  0.71292597  1
  Li  Li30  1  0.18950359  0.39817510  0.89304113  1
  Li  Li31  1  0.60182520  0.79129666  0.89302477  1
  Li  Li32  1  0.20867339  0.81050628  0.89303846  1
  Li  Li33  1  0.81049641  0.60182490  0.39304113  1
  Li  Li34  1  0.39817480  0.20870334  0.39302477  1
  Li  Li35  1  0.79132661  0.18949372  0.39303846  1
  Be  Be36  1  0.31778382  0.33886142  0.01259750  1
  Be  Be37  1  0.66112473  0.97894005  0.01262414  1
  Be  Be38  1  0.02109123  0.68219471  0.01261547  1
  Be  Be39  1  0.68221618  0.66113858  0.51259750  1
  Be  Be40  1  0.33887527  0.02105995  0.51262414  1
  Be  Be41  1  0.97890877  0.31780529  0.51261547  1
