# generated using pymatgen
data_HHeLi2
_symmetry_space_group_name_H-M   'P 1'
_cell_length_a   5.49250905
_cell_length_b   5.49250905
_cell_length_c   4.78276688
_cell_angle_alpha   90.00000000
_cell_angle_beta   90.00000000
_cell_angle_gamma   116.20416263
_symmetry_Int_Tables_number   1
_chemical_formula_structural   HHeLi2
_chemical_formula_sum   'H2 He2 Li4'
_cell_volume   129.45617360
_cell_formula_units_Z   2
loop_
 _symmetry_equiv_pos_site_id
 _symmetry_equiv_pos_as_xyz
  1  'x, y, z'
loop_
 _atom_site_type_symbol
 _atom_site_label
 _atom_site_symmetry_multiplicity
 _atom_site_fract_x
 _atom_site_fract_y
 _atom_site_fract_z
 _atom_site_occupancy
  H  H0  1  0.65407208  0.34592792  0.75000000  1
  H  H1  1  0.34592792  0.65407208  0.25000000  1
  He  He2  1  -0.00000000  -0.00000000  0.00000000  1
  He  He3  1  -0.00000000  0.00000000  0.50000000  1
  Li  Li4  1  0.69963261  0.86151346  0.75000000  1
  Li  Li5  1  0.30036739  0.13848654  0.25000000  1
  Li  Li6  1  0.13848654  0.30036739  0.75000000  1
  Li  Li7  1  0.86151346  0.69963261  0.25000000  1
