# generated using pymatgen
data_HHe
_symmetry_space_group_name_H-M   'P 1'
_cell_length_a   6.68859993
_cell_length_b   6.68859993
_cell_length_c   2.82578911
_cell_angle_alpha   90.00000000
_cell_angle_beta   90.00000000
_cell_angle_gamma   115.66234337
_symmetry_Int_Tables_number   1
_chemical_formula_structural   HHe
_chemical_formula_sum   'H4 He4'
_cell_volume   113.94869490
_cell_formula_units_Z   4
loop_
 _symmetry_equiv_pos_site_id
 _symmetry_equiv_pos_as_xyz
  1  'x, y, z'
loop_
 _atom_site_type_symbol
 _atom_site_label
 _atom_site_symmetry_multiplicity
 _atom_site_fract_x
 _atom_site_fract_y
 _atom_site_fract_z
 _atom_site_occupancy
  H  H0  1  0.47565436  0.98108084  0.00000000  1
  H  H1  1  0.01891916  0.52434564  0.00000000  1
  H  H2  1  0.27406970  0.26911073  0.00000000  1
  H  H3  1  0.73088927  0.72593030  0.00000000  1
  He  He4  1  0.64514593  0.35485407  0.50000000  1
  He  He5  1  0.37489909  0.62510091  0.50000000  1
  He  He6  1  0.87485227  0.12514773  0.50000000  1
  He  He7  1  0.10457024  0.89542976  0.50000000  1
