# generated using pymatgen
data_HHeLi2
_symmetry_space_group_name_H-M   'P 1'
_cell_length_a   2.93037611
_cell_length_b   2.93037611
_cell_length_c   10.56883293
_cell_angle_alpha   90.00000000
_cell_angle_beta   90.00000000
_cell_angle_gamma   120.00167278
_symmetry_Int_Tables_number   1
_chemical_formula_structural   HHeLi2
_chemical_formula_sum   'H2 He2 Li4'
_cell_volume   78.59539018
_cell_formula_units_Z   2
loop_
 _symmetry_equiv_pos_site_id
 _symmetry_equiv_pos_as_xyz
  1  'x, y, z'
loop_
 _atom_site_type_symbol
 _atom_site_label
 _atom_site_symmetry_multiplicity
 _atom_site_fract_x
 _atom_site_fract_y
 _atom_site_fract_z
 _atom_site_occupancy
  H  H0  1  0.00000000  0.00000000  0.00000000  1
  H  H1  1  -0.00000000  -0.00000000  0.50000000  1
  He  He2  1  0.33340959  0.66659041  0.75000000  1
  He  He3  1  0.66659041  0.33340959  0.25000000  1
  Li  Li4  1  0.33335693  0.66664307  0.12371890  1
  Li  Li5  1  0.66664307  0.33335693  0.62371890  1
  Li  Li6  1  0.66664307  0.33335693  0.87628110  1
  Li  Li7  1  0.33335693  0.66664307  0.37628110  1
