# generated using pymatgen
data_HHeLi3
_symmetry_space_group_name_H-M   'P 1'
_cell_length_a   5.54663877
_cell_length_b   5.54663877
_cell_length_c   5.54663877
_cell_angle_alpha   55.91915457
_cell_angle_beta   55.91915457
_cell_angle_gamma   55.91915457
_symmetry_Int_Tables_number   1
_chemical_formula_structural   HHeLi3
_chemical_formula_sum   'H2 He2 Li6'
_cell_volume   109.25135768
_cell_formula_units_Z   2
loop_
 _symmetry_equiv_pos_site_id
 _symmetry_equiv_pos_as_xyz
  1  'x, y, z'
loop_
 _atom_site_type_symbol
 _atom_site_label
 _atom_site_symmetry_multiplicity
 _atom_site_fract_x
 _atom_site_fract_y
 _atom_site_fract_z
 _atom_site_occupancy
  H  H0  1  0.28006316  0.28006316  0.28006316  1
  H  H1  1  0.78006316  0.78006316  0.78006316  1
  He  He2  1  0.99760483  0.99760483  0.99760483  1
  He  He3  1  0.49760483  0.49760483  0.49760483  1
  Li  Li4  1  0.11193753  0.35841381  0.72058068  1
  Li  Li5  1  0.72058068  0.11193753  0.35841381  1
  Li  Li6  1  0.35841381  0.72058068  0.11193753  1
  Li  Li7  1  0.22058068  0.85841381  0.61193753  1
  Li  Li8  1  0.85841381  0.61193753  0.22058068  1
  Li  Li9  1  0.61193753  0.22058068  0.85841381  1
