# generated using pymatgen
data_H6HeLi12(BeB)3
_symmetry_space_group_name_H-M   'P 1'
_cell_length_a   6.61551534
_cell_length_b   7.46652866
_cell_length_c   10.61243238
_cell_angle_alpha   86.51839714
_cell_angle_beta   74.70905426
_cell_angle_gamma   66.93775552
_symmetry_Int_Tables_number   1
_chemical_formula_structural   H6HeLi12(BeB)3
_chemical_formula_sum   'H12 He2 Li24 Be6 B6'
_cell_volume   464.69641971
_cell_formula_units_Z   2
loop_
 _symmetry_equiv_pos_site_id
 _symmetry_equiv_pos_as_xyz
  1  'x, y, z'
loop_
 _atom_site_type_symbol
 _atom_site_label
 _atom_site_symmetry_multiplicity
 _atom_site_fract_x
 _atom_site_fract_y
 _atom_site_fract_z
 _atom_site_occupancy
  H  H0  1  0.11948166  0.92874991  0.15392491  1
  H  H1  1  0.88051834  0.07125009  0.84607509  1
  H  H2  1  0.28175214  0.01201468  0.89969923  1
  H  H3  1  0.71824786  0.98798532  0.10030077  1
  H  H4  1  0.10557568  0.73232592  0.94224070  1
  H  H5  1  0.89442432  0.26767408  0.05775930  1
  H  H6  1  0.41050278  0.33963150  0.63761703  1
  H  H7  1  0.58949722  0.66036850  0.36238297  1
  H  H8  1  0.18427168  0.67024548  0.53372477  1
  H  H9  1  0.81572832  0.32975452  0.46627523  1
  H  H10  1  0.52559747  0.65546753  0.62846091  1
  H  H11  1  0.47440253  0.34453247  0.37153909  1
  He  He12  1  -0.00000000  -0.00000000  0.00000000  1
  He  He13  1  0.50000000  0.50000000  0.50000000  1
  Li  Li14  1  0.63644665  0.81476494  0.10261681  1
  Li  Li15  1  0.36355335  0.18523506  0.89738319  1
  Li  Li16  1  0.58908456  0.62481311  0.18855319  1
  Li  Li17  1  0.41091544  0.37518689  0.81144681  1
  Li  Li18  1  0.38717099  0.78000338  0.11810228  1
  Li  Li19  1  0.61282901  0.21999662  0.88189772  1
  Li  Li20  1  0.76524545  0.45701789  0.01311774  1
  Li  Li21  1  0.23475455  0.54298211  0.98688226  1
  Li  Li22  1  0.28645562  0.33843137  0.30531795  1
  Li  Li23  1  0.71354438  0.66156863  0.69468205  1
  Li  Li24  1  0.06278754  0.27229649  0.30987259  1
  Li  Li25  1  -0.06278754  0.72770351  0.69012741  1
  Li  Li26  1  0.22795440  0.30690439  0.15994721  1
  Li  Li27  1  0.77204560  0.69309561  0.84005279  1
  Li  Li28  1  0.85745314  0.55913622  0.31427507  1
  Li  Li29  1  0.14254686  0.44086378  0.68572493  1
  Li  Li30  1  0.32189010  0.12335231  0.65360434  1
  Li  Li31  1  0.67810990  0.87664769  0.34639566  1
  Li  Li32  1  0.08991009  0.06246542  0.72105583  1
  Li  Li33  1  0.91008991  0.93753458  0.27894417  1
  Li  Li34  1  0.34593800  0.88732545  0.63792758  1
  Li  Li35  1  0.65406200  0.11267455  0.36207242  1
  Li  Li36  1  0.02559388  0.17587353  0.53343728  1
  Li  Li37  1  0.97440612  0.82412647  0.46656272  1
  Be  Be38  1  0.56451814  0.70744024  0.10688707  1
  Be  Be39  1  0.43548186  0.29255976  0.89311293  1
  Be  Be40  1  0.15882587  0.34822323  0.25938403  1
  Be  Be41  1  0.84117413  0.65177677  0.74061597  1
  Be  Be42  1  0.23668712  0.03636092  0.64197925  1
  Be  Be43  1  0.76331288  0.96363908  0.35802075  1
  B  B44  1  0.66805276  0.59103654  0.98850518  1
  B  B45  1  0.33194724  0.40896346  0.01149482  1
  B  B46  1  0.01495405  0.54810269  0.26520755  1
  B  B47  1  -0.01495405  0.45189731  0.73479245  1
  B  B48  1  0.18330003  0.07376757  0.51896254  1
  B  B49  1  0.81669997  0.92623243  0.48103746  1
