# generated using pymatgen
data_H4He4Li
_symmetry_space_group_name_H-M   'P 1'
_cell_length_a   5.01836134
_cell_length_b   5.01836134
_cell_length_c   6.93302323
_cell_angle_alpha   90.00000000
_cell_angle_beta   90.00000000
_cell_angle_gamma   90.00000000
_symmetry_Int_Tables_number   1
_chemical_formula_structural   H4He4Li
_chemical_formula_sum   'H8 He8 Li2'
_cell_volume   174.60091387
_cell_formula_units_Z   2
loop_
 _symmetry_equiv_pos_site_id
 _symmetry_equiv_pos_as_xyz
  1  'x, y, z'
loop_
 _atom_site_type_symbol
 _atom_site_label
 _atom_site_symmetry_multiplicity
 _atom_site_fract_x
 _atom_site_fract_y
 _atom_site_fract_z
 _atom_site_occupancy
  H  H0  1  0.25000000  0.07243131  0.09509288  1
  H  H1  1  0.25000000  0.42756869  0.09509288  1
  H  H2  1  0.42756869  0.25000000  0.59509288  1
  H  H3  1  0.07243131  0.25000000  0.59509288  1
  H  H4  1  0.75000000  0.57243131  0.90490712  1
  H  H5  1  0.75000000  0.92756869  0.90490712  1
  H  H6  1  0.57243131  0.75000000  0.40490712  1
  H  H7  1  0.92756869  0.75000000  0.40490712  1
  He  He8  1  0.25000000  0.50450029  0.38621192  1
  He  He9  1  0.25000000  0.99549971  0.38621192  1
  He  He10  1  0.99549971  0.25000000  0.88621192  1
  He  He11  1  0.50450029  0.25000000  0.88621192  1
  He  He12  1  0.75000000  0.00450029  0.61378808  1
  He  He13  1  0.75000000  0.49549971  0.61378808  1
  He  He14  1  0.00450029  0.75000000  0.11378808  1
  He  He15  1  0.49549971  0.75000000  0.11378808  1
  Li  Li16  1  0.75000000  0.25000000  0.25000000  1
  Li  Li17  1  0.25000000  0.75000000  0.75000000  1
