# generated using pymatgen
data_H2He16Li4Be3
_symmetry_space_group_name_H-M   'P 1'
_cell_length_a   9.13868779
_cell_length_b   9.10516746
_cell_length_c   9.41169562
_cell_angle_alpha   63.17608542
_cell_angle_beta   90.00000000
_cell_angle_gamma   90.00000000
_symmetry_Int_Tables_number   1
_chemical_formula_structural   H2He16Li4Be3
_chemical_formula_sum   'H4 He32 Li8 Be6'
_cell_volume   698.87261073
_cell_formula_units_Z   2
loop_
 _symmetry_equiv_pos_site_id
 _symmetry_equiv_pos_as_xyz
  1  'x, y, z'
loop_
 _atom_site_type_symbol
 _atom_site_label
 _atom_site_symmetry_multiplicity
 _atom_site_fract_x
 _atom_site_fract_y
 _atom_site_fract_z
 _atom_site_occupancy
  H  H0  1  0.63109763  0.75224973  0.24491340  1
  H  H1  1  0.13109763  0.24775027  0.25508660  1
  H  H2  1  0.36890237  0.24775027  0.75508660  1
  H  H3  1  0.86890237  0.75224973  0.74491340  1
  He  He4  1  0.58983641  0.84349634  0.00752988  1
  He  He5  1  0.08983641  0.15650366  0.49247012  1
  He  He6  1  0.41016359  0.15650366  0.99247012  1
  He  He7  1  0.91016359  0.84349634  0.50752988  1
  He  He8  1  0.70563011  0.90773663  0.73644056  1
  He  He9  1  0.20563011  0.09226337  0.76355944  1
  He  He10  1  0.29436989  0.09226337  0.26355944  1
  He  He11  1  0.79436989  0.90773663  0.23644056  1
  He  He12  1  0.21538759  0.40967956  0.75435000  1
  He  He13  1  0.71538759  0.59032044  0.74565000  1
  He  He14  1  0.78461241  0.59032044  0.24565000  1
  He  He15  1  0.28461241  0.40967956  0.25435000  1
  He  He16  1  0.04496594  0.60990431  0.75831034  1
  He  He17  1  0.54496594  0.39009569  0.74168966  1
  He  He18  1  0.95503406  0.39009569  0.24168966  1
  He  He19  1  0.45503406  0.60990431  0.25831034  1
  He  He20  1  0.49503805  0.91985536  0.25725024  1
  He  He21  1  0.99503805  0.08014464  0.24274976  1
  He  He22  1  0.50496195  0.08014464  0.74274976  1
  He  He23  1  0.00496195  0.91985536  0.75725024  1
  He  He24  1  0.65052999  0.60745446  0.47845726  1
  He  He25  1  0.15052999  0.39254554  0.02154274  1
  He  He26  1  0.34947001  0.39254554  0.52154274  1
  He  He27  1  0.84947001  0.60745446  0.97845726  1
  He  He28  1  0.24847978  0.90113555  0.63395237  1
  He  He29  1  0.74847978  0.09886445  0.86604763  1
  He  He30  1  0.75152022  0.09886445  0.36604763  1
  He  He31  1  0.25152022  0.90113555  0.13395237  1
  He  He32  1  0.45844604  0.68808759  0.62845536  1
  He  He33  1  0.95844604  0.31191241  0.87154464  1
  He  He34  1  0.54155396  0.31191241  0.37154464  1
  He  He35  1  0.04155396  0.68808759  0.12845536  1
  Li  Li36  1  0.08903014  0.42442146  0.85872980  1
  Li  Li37  1  0.58903014  0.57557854  0.64127020  1
  Li  Li38  1  0.91096986  0.57557854  0.14127020  1
  Li  Li39  1  0.41096986  0.42442146  0.35872980  1
  Li  Li40  1  0.13874865  0.01935548  0.65574666  1
  Li  Li41  1  0.63874865  0.98064452  0.84425334  1
  Li  Li42  1  0.86125135  0.98064452  0.34425334  1
  Li  Li43  1  0.36125135  0.01935548  0.15574666  1
  Be  Be44  1  0.20807040  0.69985812  0.53027947  1
  Be  Be45  1  0.70807040  0.30014188  0.96972053  1
  Be  Be46  1  0.79192960  0.30014188  0.46972053  1
  Be  Be47  1  0.29192960  0.69985812  0.03027947  1
  Be  Be48  1  0.50000000  0.00000000  0.50000000  1
  Be  Be49  1  0.00000000  -0.00000000  0.00000000  1
