# generated using pymatgen
data_H2He12LiBe4
_symmetry_space_group_name_H-M   'P 1'
_cell_length_a   10.76575725
_cell_length_b   10.76575725
_cell_length_c   5.07529743
_cell_angle_alpha   90.00000000
_cell_angle_beta   90.00000000
_cell_angle_gamma   90.00000000
_symmetry_Int_Tables_number   1
_chemical_formula_structural   H2He12LiBe4
_chemical_formula_sum   'H4 He24 Li2 Be8'
_cell_volume   588.23473320
_cell_formula_units_Z   2
loop_
 _symmetry_equiv_pos_site_id
 _symmetry_equiv_pos_as_xyz
  1  'x, y, z'
loop_
 _atom_site_type_symbol
 _atom_site_label
 _atom_site_symmetry_multiplicity
 _atom_site_fract_x
 _atom_site_fract_y
 _atom_site_fract_z
 _atom_site_occupancy
  H  H0  1  -0.00000000  0.00000000  0.50000000  1
  H  H1  1  0.50000000  0.50000000  0.50000000  1
  H  H2  1  0.50000000  0.00000000  0.50000000  1
  H  H3  1  0.00000000  0.50000000  0.50000000  1
  He  He4  1  0.63202603  0.36797397  0.15159480  1
  He  He5  1  0.86797397  0.13202603  0.15159480  1
  He  He6  1  0.13202603  0.63202603  0.15159480  1
  He  He7  1  0.36797397  0.86797397  0.15159480  1
  He  He8  1  0.86797397  0.36797397  0.84840520  1
  He  He9  1  0.63202603  0.13202603  0.84840520  1
  He  He10  1  0.36797397  0.63202603  0.84840520  1
  He  He11  1  0.13202603  0.86797397  0.84840520  1
  He  He12  1  0.18331984  0.05291626  0.23667693  1
  He  He13  1  0.31668016  0.44708374  0.23667693  1
  He  He14  1  0.44708374  0.18331984  0.23667693  1
  He  He15  1  0.05291626  0.31668016  0.23667693  1
  He  He16  1  0.31668016  0.05291626  0.76332307  1
  He  He17  1  0.18331984  0.44708374  0.76332307  1
  He  He18  1  0.05291626  0.18331984  0.76332307  1
  He  He19  1  0.44708374  0.31668016  0.76332307  1
  He  He20  1  0.81668016  0.94708374  0.76332307  1
  He  He21  1  0.68331984  0.55291626  0.76332307  1
  He  He22  1  0.55291626  0.81668016  0.76332307  1
  He  He23  1  0.94708374  0.68331984  0.76332307  1
  He  He24  1  0.68331984  0.94708374  0.23667693  1
  He  He25  1  0.81668016  0.55291626  0.23667693  1
  He  He26  1  0.94708374  0.81668016  0.23667693  1
  He  He27  1  0.55291626  0.68331984  0.23667693  1
  Li  Li28  1  0.25000000  0.25000000  0.50000000  1
  Li  Li29  1  0.75000000  0.75000000  0.50000000  1
  Be  Be30  1  0.53322659  0.25000000  -0.00000000  1
  Be  Be31  1  0.96677341  0.25000000  0.00000000  1
  Be  Be32  1  0.25000000  0.53322659  -0.00000000  1
  Be  Be33  1  0.25000000  0.96677341  0.00000000  1
  Be  Be34  1  0.46677341  0.75000000  0.00000000  1
  Be  Be35  1  0.03322659  0.75000000  -0.00000000  1
  Be  Be36  1  0.75000000  0.46677341  0.00000000  1
  Be  Be37  1  0.75000000  0.03322659  -0.00000000  1
