# generated using pymatgen
data_HHeLi2
_symmetry_space_group_name_H-M   'P 1'
_cell_length_a   5.49118383
_cell_length_b   11.04652080
_cell_length_c   15.62372787
_cell_angle_alpha   90.00000000
_cell_angle_beta   90.00000000
_cell_angle_gamma   90.00000000
_symmetry_Int_Tables_number   1
_chemical_formula_structural   HHeLi2
_chemical_formula_sum   'H16 He16 Li32'
_cell_volume   947.71152783
_cell_formula_units_Z   16
loop_
 _symmetry_equiv_pos_site_id
 _symmetry_equiv_pos_as_xyz
  1  'x, y, z'
loop_
 _atom_site_type_symbol
 _atom_site_label
 _atom_site_symmetry_multiplicity
 _atom_site_fract_x
 _atom_site_fract_y
 _atom_site_fract_z
 _atom_site_occupancy
  H  H0  1  0.25395272  0.00744839  0.18861938  1
  H  H1  1  0.24604728  0.99255161  0.68861938  1
  H  H2  1  0.74604728  0.50744839  0.31138062  1
  H  H3  1  0.75395272  0.49255161  0.81138062  1
  H  H4  1  0.74604728  0.99255161  0.81138062  1
  H  H5  1  0.75395272  0.00744839  0.31138062  1
  H  H6  1  0.25395272  0.49255161  0.68861938  1
  H  H7  1  0.24604728  0.50744839  0.18861938  1
  H  H8  1  0.28033370  0.26173606  0.06354380  1
  H  H9  1  0.21966630  0.73826394  0.56354380  1
  H  H10  1  0.71966630  0.76173606  0.43645620  1
  H  H11  1  0.78033370  0.23826394  0.93645620  1
  H  H12  1  0.71966630  0.73826394  0.93645620  1
  H  H13  1  0.78033370  0.26173606  0.43645620  1
  H  H14  1  0.28033370  0.23826394  0.56354380  1
  H  H15  1  0.21966630  0.76173606  0.06354380  1
  He  He16  1  0.75198328  0.00754080  0.06151799  1
  He  He17  1  0.74801672  0.99245920  0.56151799  1
  He  He18  1  0.24801672  0.50754080  0.43848201  1
  He  He19  1  0.25198328  0.49245920  0.93848201  1
  He  He20  1  0.24801672  0.99245920  0.93848201  1
  He  He21  1  0.25198328  0.00754080  0.43848201  1
  He  He22  1  0.75198328  0.49245920  0.56151799  1
  He  He23  1  0.74801672  0.50754080  0.06151799  1
  He  He24  1  0.79480471  0.26016775  0.18514873  1
  He  He25  1  0.70519529  0.73983225  0.68514873  1
  He  He26  1  0.20519529  0.76016775  0.31485127  1
  He  He27  1  0.29480471  0.23983225  0.81485127  1
  He  He28  1  0.20519529  0.73983225  0.81485127  1
  He  He29  1  0.29480471  0.26016775  0.31485127  1
  He  He30  1  0.79480471  0.23983225  0.68514873  1
  He  He31  1  0.70519529  0.76016775  0.18514873  1
  Li  Li32  1  0.57048829  0.28540098  0.01627330  1
  Li  Li33  1  0.92951171  0.71459902  0.51627330  1
  Li  Li34  1  0.42951171  0.78540098  0.48372670  1
  Li  Li35  1  0.07048829  0.21459902  0.98372670  1
  Li  Li36  1  0.42951171  0.71459902  0.98372670  1
  Li  Li37  1  0.07048829  0.28540098  0.48372670  1
  Li  Li38  1  0.57048829  0.21459902  0.51627330  1
  Li  Li39  1  0.92951171  0.78540098  0.01627330  1
  Li  Li40  1  0.17663306  0.40201222  0.10619387  1
  Li  Li41  1  0.32336694  0.59798778  0.60619387  1
  Li  Li42  1  0.82336694  0.90201222  0.39380613  1
  Li  Li43  1  0.67663306  0.09798778  0.89380613  1
  Li  Li44  1  0.82336694  0.59798778  0.89380613  1
  Li  Li45  1  0.67663306  0.40201222  0.39380613  1
  Li  Li46  1  0.17663306  0.09798778  0.60619387  1
  Li  Li47  1  0.32336694  0.90201222  0.10619387  1
  Li  Li48  1  0.30116464  0.15603013  0.14849605  1
  Li  Li49  1  0.19883536  0.84396987  0.64849605  1
  Li  Li50  1  0.69883536  0.65603013  0.35150395  1
  Li  Li51  1  0.80116464  0.34396987  0.85150395  1
  Li  Li52  1  0.69883536  0.84396987  0.85150395  1
  Li  Li53  1  0.80116464  0.15603013  0.35150395  1
  Li  Li54  1  0.30116464  0.34396987  0.64849605  1
  Li  Li55  1  0.19883536  0.65603013  0.14849605  1
  Li  Li56  1  0.05295759  0.48519488  0.27851011  1
  Li  Li57  1  0.44704241  0.51480512  0.77851011  1
  Li  Li58  1  0.94704241  0.98519488  0.22148989  1
  Li  Li59  1  0.55295759  0.01480512  0.72148989  1
  Li  Li60  1  0.94704241  0.51480512  0.72148989  1
  Li  Li61  1  0.55295759  0.48519488  0.22148989  1
  Li  Li62  1  0.05295759  0.01480512  0.77851011  1
  Li  Li63  1  0.44704241  0.98519488  0.27851011  1
