# generated using pymatgen
data_H3He
_symmetry_space_group_name_H-M   'P 1'
_cell_length_a   6.69837295
_cell_length_b   6.69858462
_cell_length_c   4.63353958
_cell_angle_alpha   90.00000000
_cell_angle_beta   90.00000000
_cell_angle_gamma   119.99895472
_symmetry_Int_Tables_number   1
_chemical_formula_structural   H3He
_chemical_formula_sum   'H6 He2'
_cell_volume   180.05303915
_cell_formula_units_Z   2
loop_
 _symmetry_equiv_pos_site_id
 _symmetry_equiv_pos_as_xyz
  1  'x, y, z'
loop_
 _atom_site_type_symbol
 _atom_site_label
 _atom_site_symmetry_multiplicity
 _atom_site_fract_x
 _atom_site_fract_y
 _atom_site_fract_z
 _atom_site_occupancy
  H  H0  1  0.72515122  0.86258463  0.25000000  1
  H  H1  1  0.13743340  0.86258463  0.25000000  1
  H  H2  1  0.13741547  0.27483094  0.25000000  1
  H  H3  1  0.27484878  0.13741537  0.75000000  1
  H  H4  1  0.86256660  0.13741537  0.75000000  1
  H  H5  1  0.86258453  0.72516906  0.75000000  1
  He  He6  1  0.66667615  0.33335230  0.25000000  1
  He  He7  1  0.33332385  0.66664770  0.75000000  1
