# generated using pymatgen
data_H2He3(Li4Be)3
_symmetry_space_group_name_H-M   'P 1'
_cell_length_a   10.02255557
_cell_length_b   10.02255557
_cell_length_c   10.02255557
_cell_angle_alpha   109.47122063
_cell_angle_beta   109.47122063
_cell_angle_gamma   109.47122063
_symmetry_Int_Tables_number   1
_chemical_formula_structural   H2He3(Li4Be)3
_chemical_formula_sum   'H8 He12 Li48 Be12'
_cell_volume   775.02110246
_cell_formula_units_Z   4
loop_
 _symmetry_equiv_pos_site_id
 _symmetry_equiv_pos_as_xyz
  1  'x, y, z'
loop_
 _atom_site_type_symbol
 _atom_site_label
 _atom_site_symmetry_multiplicity
 _atom_site_fract_x
 _atom_site_fract_y
 _atom_site_fract_z
 _atom_site_occupancy
  H  H0  1  0.00000000  0.00000000  0.00000000  1
  H  H1  1  0.50000000  -0.00000000  0.50000000  1
  H  H2  1  -0.00000000  0.50000000  0.50000000  1
  H  H3  1  0.50000000  0.50000000  -0.00000000  1
  H  H4  1  0.50000000  0.00000000  0.00000000  1
  H  H5  1  0.50000000  0.50000000  0.50000000  1
  H  H6  1  0.00000000  -0.00000000  0.50000000  1
  H  H7  1  0.00000000  0.50000000  -0.00000000  1
  He  He8  1  0.25000000  0.37500000  0.12500000  1
  He  He9  1  0.75000000  0.12500000  0.37500000  1
  He  He10  1  0.12500000  0.25000000  0.37500000  1
  He  He11  1  0.37500000  0.75000000  0.12500000  1
  He  He12  1  0.37500000  0.12500000  0.25000000  1
  He  He13  1  0.12500000  0.37500000  0.75000000  1
  He  He14  1  0.75000000  0.62500000  0.87500000  1
  He  He15  1  0.25000000  0.87500000  0.62500000  1
  He  He16  1  0.87500000  0.75000000  0.62500000  1
  He  He17  1  0.62500000  0.25000000  0.87500000  1
  He  He18  1  0.62500000  0.87500000  0.75000000  1
  He  He19  1  0.87500000  0.62500000  0.25000000  1
  Li  Li20  1  0.70373631  0.68633794  0.08429487  1
  Li  Li21  1  0.10204307  0.61944144  0.41570513  1
  Li  Li22  1  0.39795693  0.81366206  0.51739837  1
  Li  Li23  1  0.79626369  0.88055856  0.98260163  1
  Li  Li24  1  0.08429487  0.70373631  0.68633794  1
  Li  Li25  1  0.41570513  0.10204307  0.61944144  1
  Li  Li26  1  0.51739837  0.39795693  0.81366206  1
  Li  Li27  1  0.98260163  0.79626369  0.88055856  1
  Li  Li28  1  0.68633794  0.08429487  0.70373631  1
  Li  Li29  1  0.61944144  0.41570513  0.10204307  1
  Li  Li30  1  0.81366206  0.51739837  0.39795693  1
  Li  Li31  1  0.88055856  0.98260163  0.79626369  1
  Li  Li32  1  0.88055856  0.39795693  0.08429487  1
  Li  Li33  1  0.81366206  0.79626369  0.41570513  1
  Li  Li34  1  0.61944144  0.70373631  0.51739837  1
  Li  Li35  1  0.68633794  0.10204307  0.98260163  1
  Li  Li36  1  0.10204307  0.98260163  0.68633794  1
  Li  Li37  1  0.70373631  0.51739837  0.61944144  1
  Li  Li38  1  0.79626369  0.41570513  0.81366206  1
  Li  Li39  1  0.39795693  0.08429487  0.88055856  1
  Li  Li40  1  0.51739837  0.61944144  0.70373631  1
  Li  Li41  1  0.98260163  0.68633794  0.10204307  1
  Li  Li42  1  0.08429487  0.88055856  0.39795693  1
  Li  Li43  1  0.41570513  0.81366206  0.79626369  1
  Li  Li44  1  0.29626369  0.31366206  0.91570513  1
  Li  Li45  1  0.89795693  0.38055856  0.58429487  1
  Li  Li46  1  0.60204307  0.18633794  0.48260163  1
  Li  Li47  1  0.20373631  0.11944144  0.01739837  1
  Li  Li48  1  0.91570513  0.29626369  0.31366206  1
  Li  Li49  1  0.58429487  0.89795693  0.38055856  1
  Li  Li50  1  0.48260163  0.60204307  0.18633794  1
  Li  Li51  1  0.01739837  0.20373631  0.11944144  1
  Li  Li52  1  0.31366206  0.91570513  0.29626369  1
  Li  Li53  1  0.38055856  0.58429487  0.89795693  1
  Li  Li54  1  0.18633794  0.48260163  0.60204307  1
  Li  Li55  1  0.11944144  0.01739837  0.20373631  1
  Li  Li56  1  0.11944144  0.60204307  0.91570513  1
  Li  Li57  1  0.18633794  0.20373631  0.58429487  1
  Li  Li58  1  0.38055856  0.29626369  0.48260163  1
  Li  Li59  1  0.31366206  0.89795693  0.01739837  1
  Li  Li60  1  0.89795693  0.01739837  0.31366206  1
  Li  Li61  1  0.29626369  0.48260163  0.38055856  1
  Li  Li62  1  0.20373631  0.58429487  0.18633794  1
  Li  Li63  1  0.60204307  0.91570513  0.11944144  1
  Li  Li64  1  0.48260163  0.38055856  0.29626369  1
  Li  Li65  1  0.01739837  0.31366206  0.89795693  1
  Li  Li66  1  0.91570513  0.11944144  0.60204307  1
  Li  Li67  1  0.58429487  0.18633794  0.20373631  1
  Be  Be68  1  0.25000000  0.62500000  0.37500000  1
  Be  Be69  1  0.75000000  0.87500000  0.12500000  1
  Be  Be70  1  0.37500000  0.25000000  0.62500000  1
  Be  Be71  1  0.12500000  0.75000000  0.87500000  1
  Be  Be72  1  0.62500000  0.37500000  0.25000000  1
  Be  Be73  1  0.87500000  0.12500000  0.75000000  1
  Be  Be74  1  0.62500000  0.75000000  0.37500000  1
  Be  Be75  1  0.87500000  0.25000000  0.12500000  1
  Be  Be76  1  0.75000000  0.37500000  0.62500000  1
  Be  Be77  1  0.25000000  0.12500000  0.87500000  1
  Be  Be78  1  0.12500000  0.87500000  0.25000000  1
  Be  Be79  1  0.37500000  0.62500000  0.75000000  1
