# generated using pymatgen
data_HHeLi
_symmetry_space_group_name_H-M   'P 1'
_cell_length_a   7.70859082
_cell_length_b   7.70811509
_cell_length_c   3.94315425
_cell_angle_alpha   90.00000000
_cell_angle_beta   90.00000000
_cell_angle_gamma   119.99195174
_symmetry_Int_Tables_number   1
_chemical_formula_structural   HHeLi
_chemical_formula_sum   'H3 He3 Li3'
_cell_volume   202.92371182
_cell_formula_units_Z   3
loop_
 _symmetry_equiv_pos_site_id
 _symmetry_equiv_pos_as_xyz
  1  'x, y, z'
loop_
 _atom_site_type_symbol
 _atom_site_label
 _atom_site_symmetry_multiplicity
 _atom_site_fract_x
 _atom_site_fract_y
 _atom_site_fract_z
 _atom_site_occupancy
  H  H0  1  0.99987568  0.40926585  0.50000000  1
  H  H1  1  0.40928382  0.99987937  0.50000000  1
  H  H2  1  0.59059387  0.59061145  0.50000000  1
  He  He3  1  0.00019385  0.74498152  0.00000000  1
  He  He4  1  0.74472936  0.00008611  0.00000000  1
  He  He5  1  0.25522925  0.25506960  0.00000000  1
  Li  Li6  1  0.00002069  0.00013671  0.50000000  1
  Li  Li7  1  0.33317590  0.66648583  0.00000000  1
  Li  Li8  1  0.66693075  0.33356038  0.00000000  1
