# generated using pymatgen
data_HHe16
_symmetry_space_group_name_H-M   'P 1'
_cell_length_a   6.79653920
_cell_length_b   6.79653920
_cell_length_c   11.61437928
_cell_angle_alpha   90.00000000
_cell_angle_beta   90.00000000
_cell_angle_gamma   112.03168436
_symmetry_Int_Tables_number   1
_chemical_formula_structural   HHe16
_chemical_formula_sum   'H2 He32'
_cell_volume   497.32513297
_cell_formula_units_Z   2
loop_
 _symmetry_equiv_pos_site_id
 _symmetry_equiv_pos_as_xyz
  1  'x, y, z'
loop_
 _atom_site_type_symbol
 _atom_site_label
 _atom_site_symmetry_multiplicity
 _atom_site_fract_x
 _atom_site_fract_y
 _atom_site_fract_z
 _atom_site_occupancy
  H  H0  1  0.95291264  0.04708736  0.75000000  1
  H  H1  1  0.04708736  0.95291264  0.25000000  1
  He  He2  1  0.64504689  0.01898504  0.92987457  1
  He  He3  1  0.35495311  0.98101496  0.42987457  1
  He  He4  1  0.98101496  0.35495311  0.57012543  1
  He  He5  1  0.01898504  0.64504689  0.07012543  1
  He  He6  1  0.35495311  0.98101496  0.07012543  1
  He  He7  1  0.64504689  0.01898504  0.57012543  1
  He  He8  1  0.01898504  0.64504689  0.42987457  1
  He  He9  1  0.98101496  0.35495311  0.92987457  1
  He  He10  1  0.34845144  0.24272874  0.86567183  1
  He  He11  1  0.65154856  0.75727126  0.36567183  1
  He  He12  1  0.75727126  0.65154856  0.63432817  1
  He  He13  1  0.24272874  0.34845144  0.13432817  1
  He  He14  1  0.65154856  0.75727126  0.13432817  1
  He  He15  1  0.34845144  0.24272874  0.63432817  1
  He  He16  1  0.24272874  0.34845144  0.36567183  1
  He  He17  1  0.75727126  0.65154856  0.86567183  1
  He  He18  1  0.52064062  0.80961289  0.75000000  1
  He  He19  1  0.47935938  0.19038711  0.25000000  1
  He  He20  1  0.19038711  0.47935938  0.75000000  1
  He  He21  1  0.80961289  0.52064062  0.25000000  1
  He  He22  1  0.82286741  0.17713259  0.36027601  1
  He  He23  1  0.17713259  0.82286741  0.86027601  1
  He  He24  1  0.82286741  0.17713259  0.13972399  1
  He  He25  1  0.17713259  0.82286741  0.63972399  1
  He  He26  1  0.38076381  0.61923619  0.96780129  1
  He  He27  1  0.61923619  0.38076381  0.46780129  1
  He  He28  1  0.38076381  0.61923619  0.53219871  1
  He  He29  1  0.61923619  0.38076381  0.03219871  1
  He  He30  1  0.70996520  0.29003480  0.75000000  1
  He  He31  1  0.29003480  0.70996520  0.25000000  1
  He  He32  1  0.00000000  -0.00000000  0.00000000  1
  He  He33  1  -0.00000000  0.00000000  0.50000000  1
