# generated using pymatgen
data_HHeLi
_symmetry_space_group_name_H-M   'P 1'
_cell_length_a   10.00890460
_cell_length_b   9.03931094
_cell_length_c   15.86495346
_cell_angle_alpha   98.01165957
_cell_angle_beta   90.00000000
_cell_angle_gamma   90.00000000
_symmetry_Int_Tables_number   1
_chemical_formula_structural   HHeLi
_chemical_formula_sum   'H16 He16 Li16'
_cell_volume   1421.34996626
_cell_formula_units_Z   16
loop_
 _symmetry_equiv_pos_site_id
 _symmetry_equiv_pos_as_xyz
  1  'x, y, z'
loop_
 _atom_site_type_symbol
 _atom_site_label
 _atom_site_symmetry_multiplicity
 _atom_site_fract_x
 _atom_site_fract_y
 _atom_site_fract_z
 _atom_site_occupancy
  H  H0  1  0.81490204  0.24709990  0.96173558  1
  H  H1  1  0.31490204  0.75290010  0.53826442  1
  H  H2  1  0.18509796  0.75290010  0.03826442  1
  H  H3  1  0.68509796  0.24709990  0.46173558  1
  H  H4  1  0.45908580  0.71242953  0.16830727  1
  H  H5  1  0.95908580  0.28757047  0.33169273  1
  H  H6  1  0.54091420  0.28757047  0.83169273  1
  H  H7  1  0.04091420  0.71242953  0.66830727  1
  H  H8  1  0.84102275  0.87055325  0.88248084  1
  H  H9  1  0.34102275  0.12944675  0.61751916  1
  H  H10  1  0.15897725  0.12944675  0.11751916  1
  H  H11  1  0.65897725  0.87055325  0.38248084  1
  H  H12  1  0.56416802  0.90735077  0.75172362  1
  H  H13  1  0.06416802  0.09264923  0.74827638  1
  H  H14  1  0.43583198  0.09264923  0.24827638  1
  H  H15  1  0.93583198  0.90735077  0.25172362  1
  He  He16  1  0.61466680  0.78631412  0.87238055  1
  He  He17  1  0.11466680  0.21368588  0.62761945  1
  He  He18  1  0.38533320  0.21368588  0.12761945  1
  He  He19  1  0.88533320  0.78631412  0.37238055  1
  He  He20  1  0.58812812  0.93392769  0.16226890  1
  He  He21  1  0.08812812  0.06607231  0.33773110  1
  He  He22  1  0.41187188  0.06607231  0.83773110  1
  He  He23  1  0.91187188  0.93392769  0.66226890  1
  He  He24  1  0.78366169  0.01565123  0.01515779  1
  He  He25  1  0.28366169  0.98434877  0.48484221  1
  He  He26  1  0.21633831  0.98434877  0.98484221  1
  He  He27  1  0.71633831  0.01565123  0.51515779  1
  He  He28  1  0.41843775  0.70633954  0.01956067  1
  He  He29  1  0.91843775  0.29366046  0.48043933  1
  He  He30  1  0.58156225  0.29366046  0.98043933  1
  He  He31  1  0.08156225  0.70633954  0.51956067  1
  Li  Li32  1  0.74962400  0.80306412  0.07836690  1
  Li  Li33  1  0.24962400  0.19693588  0.42163310  1
  Li  Li34  1  0.25037600  0.19693588  0.92163310  1
  Li  Li35  1  0.75037600  0.80306412  0.57836690  1
  Li  Li36  1  0.64141768  0.65867768  0.98736199  1
  Li  Li37  1  0.14141768  0.34132232  0.51263801  1
  Li  Li38  1  0.35858232  0.34132232  0.01263801  1
  Li  Li39  1  0.85858232  0.65867768  0.48736199  1
  Li  Li40  1  0.40035357  0.69031725  0.87324162  1
  Li  Li41  1  0.90035357  0.30968275  0.62675838  1
  Li  Li42  1  0.59964643  0.30968275  0.12675838  1
  Li  Li43  1  0.09964643  0.69031725  0.37324162  1
  Li  Li44  1  0.72674988  0.13392820  0.14902844  1
  Li  Li45  1  0.22674988  0.86607180  0.35097156  1
  Li  Li46  1  0.27325012  0.86607180  0.85097156  1
  Li  Li47  1  0.77325012  0.13392820  0.64902844  1
