# generated using pymatgen
data_HHeLi2
_symmetry_space_group_name_H-M   'P 1'
_cell_length_a   7.52763823
_cell_length_b   8.68494240
_cell_length_c   9.68618784
_cell_angle_alpha   90.00000000
_cell_angle_beta   90.00000000
_cell_angle_gamma   90.00000000
_symmetry_Int_Tables_number   1
_chemical_formula_structural   HHeLi2
_chemical_formula_sum   'H12 He12 Li24'
_cell_volume   633.25491399
_cell_formula_units_Z   12
loop_
 _symmetry_equiv_pos_site_id
 _symmetry_equiv_pos_as_xyz
  1  'x, y, z'
loop_
 _atom_site_type_symbol
 _atom_site_label
 _atom_site_symmetry_multiplicity
 _atom_site_fract_x
 _atom_site_fract_y
 _atom_site_fract_z
 _atom_site_occupancy
  H  H0  1  0.75048023  0.09041347  0.74568678  1
  H  H1  1  0.75048023  0.90958653  0.25431322  1
  H  H2  1  0.24951977  0.40958653  0.24568678  1
  H  H3  1  0.24951977  0.59041347  0.75431322  1
  H  H4  1  0.24951977  0.90958653  0.25431322  1
  H  H5  1  0.24951977  0.09041347  0.74568678  1
  H  H6  1  0.75048023  0.59041347  0.75431322  1
  H  H7  1  0.75048023  0.40958653  0.24568678  1
  H  H8  1  0.75372075  -0.00000000  0.00000000  1
  H  H9  1  0.24627925  0.50000000  0.50000000  1
  H  H10  1  0.24627925  0.00000000  -0.00000000  1
  H  H11  1  0.75372075  0.50000000  0.50000000  1
  He  He12  1  0.75611347  0.32870574  0.95106172  1
  He  He13  1  0.75611347  0.67129426  0.04893828  1
  He  He14  1  0.24388653  0.17129426  0.45106172  1
  He  He15  1  0.24388653  0.82870574  0.54893828  1
  He  He16  1  0.24388653  0.67129426  0.04893828  1
  He  He17  1  0.24388653  0.32870574  0.95106172  1
  He  He18  1  0.75611347  0.82870574  0.54893828  1
  He  He19  1  0.75611347  0.17129426  0.45106172  1
  He  He20  1  -0.00000000  0.33026661  0.68148936  1
  He  He21  1  0.00000000  0.66973339  0.31851064  1
  He  He22  1  0.00000000  0.16973339  0.18148936  1
  He  He23  1  -0.00000000  0.83026661  0.81851064  1
  Li  Li24  1  0.65562227  0.33916050  0.68006244  1
  Li  Li25  1  0.65562227  0.66083950  0.31993756  1
  Li  Li26  1  0.34437773  0.16083950  0.18006244  1
  Li  Li27  1  0.34437773  0.83916050  0.81993756  1
  Li  Li28  1  0.34437773  0.66083950  0.31993756  1
  Li  Li29  1  0.34437773  0.33916050  0.68006244  1
  Li  Li30  1  0.65562227  0.83916050  0.81993756  1
  Li  Li31  1  0.65562227  0.16083950  0.18006244  1
  Li  Li32  1  0.50000000  0.04407240  0.62180149  1
  Li  Li33  1  0.50000000  0.95592760  0.37819851  1
  Li  Li34  1  0.50000000  0.45592760  0.12180149  1
  Li  Li35  1  0.50000000  0.54407240  0.87819851  1
  Li  Li36  1  0.00000000  0.03952862  0.61871769  1
  Li  Li37  1  -0.00000000  0.96047138  0.38128231  1
  Li  Li38  1  -0.00000000  0.46047138  0.11871769  1
  Li  Li39  1  0.00000000  0.53952862  0.88128231  1
  Li  Li40  1  0.50000000  0.11352533  0.89677533  1
  Li  Li41  1  0.50000000  0.88647467  0.10322467  1
  Li  Li42  1  0.50000000  0.38647467  0.39677533  1
  Li  Li43  1  0.50000000  0.61352533  0.60322467  1
  Li  Li44  1  0.00000000  0.11966044  0.89571865  1
  Li  Li45  1  0.00000000  0.88033956  0.10428135  1
  Li  Li46  1  0.00000000  0.38033956  0.39571865  1
  Li  Li47  1  -0.00000000  0.61966044  0.60428135  1
