# generated using pymatgen
data_HHeLiBe10B3
_symmetry_space_group_name_H-M   'P 1'
_cell_length_a   8.81350766
_cell_length_b   9.16879101
_cell_length_c   6.28777811
_cell_angle_alpha   68.13091346
_cell_angle_beta   90.00000000
_cell_angle_gamma   90.00000000
_symmetry_Int_Tables_number   1
_chemical_formula_structural   HHeLiBe10B3
_chemical_formula_sum   'H2 He2 Li2 Be20 B6'
_cell_volume   471.54541643
_cell_formula_units_Z   2
loop_
 _symmetry_equiv_pos_site_id
 _symmetry_equiv_pos_as_xyz
  1  'x, y, z'
loop_
 _atom_site_type_symbol
 _atom_site_label
 _atom_site_symmetry_multiplicity
 _atom_site_fract_x
 _atom_site_fract_y
 _atom_site_fract_z
 _atom_site_occupancy
  H  H0  1  0.94657356  -0.00000000  0.50000000  1
  H  H1  1  0.44657356  0.50000000  0.50000000  1
  He  He2  1  0.60973504  0.00000000  -0.00000000  1
  He  He3  1  0.10973504  0.50000000  -0.00000000  1
  Li  Li4  1  0.19780108  0.00000000  -0.00000000  1
  Li  Li5  1  0.69780108  0.50000000  0.00000000  1
  Be  Be6  1  0.95474638  0.33437835  0.04998940  1
  Be  Be7  1  0.45474638  0.83437835  0.04998940  1
  Be  Be8  1  0.45474638  0.16562165  0.95001060  1
  Be  Be9  1  0.95474638  0.66562165  0.95001060  1
  Be  Be10  1  0.77582327  0.14954517  0.96529083  1
  Be  Be11  1  0.27582327  0.64954517  0.96529083  1
  Be  Be12  1  0.27582327  0.35045483  0.03470917  1
  Be  Be13  1  0.77582327  0.85045483  0.03470917  1
  Be  Be14  1  0.90251412  0.35752108  0.63847927  1
  Be  Be15  1  0.40251412  0.85752108  0.63847927  1
  Be  Be16  1  0.40251412  0.14247892  0.36152073  1
  Be  Be17  1  0.90251412  0.64247892  0.36152073  1
  Be  Be18  1  0.10584459  0.44767782  0.33942579  1
  Be  Be19  1  0.60584459  0.94767782  0.33942579  1
  Be  Be20  1  0.60584459  0.05232218  0.66057421  1
  Be  Be21  1  0.10584459  0.55232218  0.66057421  1
  Be  Be22  1  0.69971139  0.43864443  0.86038033  1
  Be  Be23  1  0.19971139  0.93864443  0.86038033  1
  Be  Be24  1  0.19971139  0.06135557  0.13961967  1
  Be  Be25  1  0.69971139  0.56135557  0.13961967  1
  B  B26  1  0.51270410  0.00000000  0.50000000  1
  B  B27  1  0.01270410  0.50000000  0.50000000  1
  B  B28  1  0.82759835  0.31813061  0.89515607  1
  B  B29  1  0.32759835  0.81813061  0.89515607  1
  B  B30  1  0.32759835  0.18186939  0.10484393  1
  B  B31  1  0.82759835  0.68186939  0.10484393  1
