# generated using pymatgen
data_H2He
_symmetry_space_group_name_H-M   'P 1'
_cell_length_a   5.07769390
_cell_length_b   5.07737193
_cell_length_c   5.55655720
_cell_angle_alpha   90.00038675
_cell_angle_beta   89.99745926
_cell_angle_gamma   119.99659465
_symmetry_Int_Tables_number   1
_chemical_formula_structural   H2He
_chemical_formula_sum   'H6 He3'
_cell_volume   124.06715298
_cell_formula_units_Z   3
loop_
 _symmetry_equiv_pos_site_id
 _symmetry_equiv_pos_as_xyz
  1  'x, y, z'
loop_
 _atom_site_type_symbol
 _atom_site_label
 _atom_site_symmetry_multiplicity
 _atom_site_fract_x
 _atom_site_fract_y
 _atom_site_fract_z
 _atom_site_occupancy
  H  H0  1  0.23599399  0.82014869  0.81036508  1
  H  H1  1  0.17978542  0.41588553  0.47708935  1
  H  H2  1  0.58413132  0.76395816  0.14369175  1
  H  H3  1  0.41586394  0.17980556  0.18960687  1
  H  H4  1  0.76400559  0.58412652  0.52300090  1
  H  H5  1  0.82022331  0.23608410  0.85629213  1
  He  He6  1  0.00000270  0.51312745  0.66665806  1
  He  He7  1  0.48685602  0.48685940  0.33329632  1
  He  He8  1  0.51313771  0.00000459  0.00006622  1
