# generated using pymatgen
data_H2
_symmetry_space_group_name_H-M   'P 1'
_cell_length_a   5.87191175
_cell_length_b   5.87191175
_cell_length_c   4.55909213
_cell_angle_alpha   90.00000000
_cell_angle_beta   90.00000000
_cell_angle_gamma   147.30108633
_symmetry_Int_Tables_number   1
_chemical_formula_structural   H2
_chemical_formula_sum   H4
_cell_volume   84.92031100
_cell_formula_units_Z   2
loop_
 _symmetry_equiv_pos_site_id
 _symmetry_equiv_pos_as_xyz
  1  'x, y, z'
loop_
 _atom_site_type_symbol
 _atom_site_label
 _atom_site_symmetry_multiplicity
 _atom_site_fract_x
 _atom_site_fract_y
 _atom_site_fract_z
 _atom_site_occupancy
  H  H0  1  0.09400008  0.90599992  0.08672753  1
  H  H1  1  0.40599992  0.59400008  0.58672753  1
  H  H2  1  0.59400008  0.40599992  0.41327247  1
  H  H3  1  0.90599992  0.09400008  0.91327247  1
