# generated using pymatgen
data_H3HeLi4
_symmetry_space_group_name_H-M   'P 1'
_cell_length_a   8.16735878
_cell_length_b   8.16735878
_cell_length_c   8.16735878
_cell_angle_alpha   91.15356183
_cell_angle_beta   91.15356183
_cell_angle_gamma   91.15356183
_symmetry_Int_Tables_number   1
_chemical_formula_structural   H3HeLi4
_chemical_formula_sum   'H6 He2 Li8'
_cell_volume   544.47402195
_cell_formula_units_Z   2
loop_
 _symmetry_equiv_pos_site_id
 _symmetry_equiv_pos_as_xyz
  1  'x, y, z'
loop_
 _atom_site_type_symbol
 _atom_site_label
 _atom_site_symmetry_multiplicity
 _atom_site_fract_x
 _atom_site_fract_y
 _atom_site_fract_z
 _atom_site_occupancy
  H  H0  1  0.46780825  0.52163804  0.99963724  1
  H  H1  1  0.99963724  0.46780825  0.52163804  1
  H  H2  1  0.52163804  0.99963724  0.46780825  1
  H  H3  1  0.49955741  0.02157171  0.96775863  1
  H  H4  1  0.02157171  0.96775863  0.49955741  1
  H  H5  1  0.96775863  0.49955741  0.02157171  1
  He  He6  1  0.99998043  0.99998043  0.99998043  1
  He  He7  1  0.50010414  0.50010414  0.50010414  1
  Li  Li8  1  0.19385648  0.82478739  0.16302591  1
  Li  Li9  1  0.16302591  0.19385648  0.82478739  1
  Li  Li10  1  0.82478739  0.16302591  0.19385648  1
  Li  Li11  1  0.66310495  0.32486771  0.69395036  1
  Li  Li12  1  0.32486771  0.69395036  0.66310495  1
  Li  Li13  1  0.69395036  0.66310495  0.32486771  1
  Li  Li14  1  0.81802769  0.81802769  0.81802769  1
  Li  Li15  1  0.31812365  0.31812365  0.31812365  1
