# generated using pymatgen
data_H4He4Li
_symmetry_space_group_name_H-M   'P 1'
_cell_length_a   7.50653380
_cell_length_b   11.94061991
_cell_length_c   11.97221390
_cell_angle_alpha   69.07137500
_cell_angle_beta   90.00000000
_cell_angle_gamma   90.00000000
_symmetry_Int_Tables_number   1
_chemical_formula_structural   H4He4Li
_chemical_formula_sum   'H16 He16 Li4'
_cell_volume   1002.30480701
_cell_formula_units_Z   4
loop_
 _symmetry_equiv_pos_site_id
 _symmetry_equiv_pos_as_xyz
  1  'x, y, z'
loop_
 _atom_site_type_symbol
 _atom_site_label
 _atom_site_symmetry_multiplicity
 _atom_site_fract_x
 _atom_site_fract_y
 _atom_site_fract_z
 _atom_site_occupancy
  H  H0  1  0.82232161  0.20736541  0.42327468  1
  H  H1  1  0.32232161  0.29263459  0.57672532  1
  H  H2  1  0.17767839  0.79263459  0.57672532  1
  H  H3  1  0.67767839  0.70736541  0.42327468  1
  H  H4  1  0.88827476  0.58837962  0.84456177  1
  H  H5  1  0.38827476  0.91162038  0.15543823  1
  H  H6  1  0.11172524  0.41162038  0.15543823  1
  H  H7  1  0.61172524  0.08837962  0.84456177  1
  H  H8  1  0.91445791  0.80396666  0.05852604  1
  H  H9  1  0.41445791  0.69603334  0.94147396  1
  H  H10  1  0.08554209  0.19603334  0.94147396  1
  H  H11  1  0.58554209  0.30396666  0.05852604  1
  H  H12  1  0.84034915  0.39177817  0.63226036  1
  H  H13  1  0.34034915  0.10822183  0.36773964  1
  H  H14  1  0.15965085  0.60822183  0.36773964  1
  H  H15  1  0.65965085  0.89177817  0.63226036  1
  He  He16  1  0.01517421  0.16072260  0.21807285  1
  He  He17  1  0.51517421  0.33927740  0.78192715  1
  He  He18  1  0.98482579  0.83927740  0.78192715  1
  He  He19  1  0.48482579  0.66072260  0.21807285  1
  He  He20  1  0.47017119  0.35611837  0.30229864  1
  He  He21  1  0.97017119  0.14388163  0.69770136  1
  He  He22  1  0.52982881  0.64388163  0.69770136  1
  He  He23  1  0.02982881  0.85611837  0.30229864  1
  He  He24  1  0.17571505  0.51291409  0.63446646  1
  He  He25  1  0.67571505  0.98708591  0.36553354  1
  He  He26  1  0.82428495  0.48708591  0.36553354  1
  He  He27  1  0.32428495  0.01291409  0.63446646  1
  He  He28  1  0.26205022  0.47317107  0.91987724  1
  He  He29  1  0.76205022  0.02682893  0.08012276  1
  He  He30  1  0.73794978  0.52682893  0.08012276  1
  He  He31  1  0.23794978  0.97317107  0.91987724  1
  Li  Li32  1  0.12641154  0.99260950  0.75798232  1
  Li  Li33  1  0.62641154  0.50739050  0.24201768  1
  Li  Li34  1  0.87358846  0.00739050  0.24201768  1
  Li  Li35  1  0.37358846  0.49260950  0.75798232  1
