# generated using pymatgen
data_HHe3
_symmetry_space_group_name_H-M   'P 1'
_cell_length_a   5.47276235
_cell_length_b   5.47276235
_cell_length_c   7.89936971
_cell_angle_alpha   90.00000000
_cell_angle_beta   90.00000000
_cell_angle_gamma   90.00000000
_symmetry_Int_Tables_number   1
_chemical_formula_structural   HHe3
_chemical_formula_sum   'H4 He12'
_cell_volume   236.59503086
_cell_formula_units_Z   4
loop_
 _symmetry_equiv_pos_site_id
 _symmetry_equiv_pos_as_xyz
  1  'x, y, z'
loop_
 _atom_site_type_symbol
 _atom_site_label
 _atom_site_symmetry_multiplicity
 _atom_site_fract_x
 _atom_site_fract_y
 _atom_site_fract_z
 _atom_site_occupancy
  H  H0  1  0.50000000  0.00000000  0.23998573  1
  H  H1  1  0.00000000  0.50000000  0.23998573  1
  H  H2  1  -0.00000000  0.50000000  0.76001427  1
  H  H3  1  0.50000000  0.00000000  0.76001427  1
  He  He4  1  0.22569591  0.72569591  0.00000000  1
  He  He5  1  0.77430409  0.27430409  0.00000000  1
  He  He6  1  0.27430409  0.22569591  -0.00000000  1
  He  He7  1  0.72569591  0.77430409  0.00000000  1
  He  He8  1  0.00000000  -0.00000000  0.25312095  1
  He  He9  1  0.50000000  0.50000000  0.74687905  1
  He  He10  1  -0.00000000  0.00000000  0.74687905  1
  He  He11  1  0.50000000  0.50000000  0.25312095  1
  He  He12  1  0.30865809  0.80865809  0.50000000  1
  He  He13  1  0.69134191  0.19134191  0.50000000  1
  He  He14  1  0.19134191  0.30865809  0.50000000  1
  He  He15  1  0.80865809  0.69134191  0.50000000  1
