# generated using pymatgen
data_HHeLi2
_symmetry_space_group_name_H-M   'P 1'
_cell_length_a   7.19043792
_cell_length_b   7.19043792
_cell_length_c   7.19043792
_cell_angle_alpha   28.94968420
_cell_angle_beta   28.94968420
_cell_angle_gamma   28.94968420
_symmetry_Int_Tables_number   1
_chemical_formula_structural   HHeLi2
_chemical_formula_sum   'H1 He1 Li2'
_cell_volume   77.03582231
_cell_formula_units_Z   1
loop_
 _symmetry_equiv_pos_site_id
 _symmetry_equiv_pos_as_xyz
  1  'x, y, z'
loop_
 _atom_site_type_symbol
 _atom_site_label
 _atom_site_symmetry_multiplicity
 _atom_site_fract_x
 _atom_site_fract_y
 _atom_site_fract_z
 _atom_site_occupancy
  H  H0  1  0.15386481  0.15386481  0.15386481  1
  He  He1  1  0.00088167  0.00088167  0.00088167  1
  Li  Li2  1  0.27305818  0.27305818  0.27305818  1
  Li  Li3  1  0.73359534  0.73359534  0.73359534  1
