# generated using pymatgen
data_HHeLi4
_symmetry_space_group_name_H-M   'P 1'
_cell_length_a   12.22492472
_cell_length_b   12.22492472
_cell_length_c   12.22492472
_cell_angle_alpha   127.58661202
_cell_angle_beta   127.58661202
_cell_angle_gamma   77.29566370
_symmetry_Int_Tables_number   1
_chemical_formula_structural   HHeLi4
_chemical_formula_sum   'H8 He8 Li32'
_cell_volume   1113.08514956
_cell_formula_units_Z   8
loop_
 _symmetry_equiv_pos_site_id
 _symmetry_equiv_pos_as_xyz
  1  'x, y, z'
loop_
 _atom_site_type_symbol
 _atom_site_label
 _atom_site_symmetry_multiplicity
 _atom_site_fract_x
 _atom_site_fract_y
 _atom_site_fract_z
 _atom_site_occupancy
  H  H0  1  0.87500000  0.12500000  0.25000000  1
  H  H1  1  0.62500000  0.37500000  0.75000000  1
  H  H2  1  0.12500000  0.87500000  0.75000000  1
  H  H3  1  0.37500000  0.62500000  0.25000000  1
  H  H4  1  0.62500000  0.87500000  0.25000000  1
  H  H5  1  0.37500000  0.12500000  0.75000000  1
  H  H6  1  0.87500000  0.62500000  0.75000000  1
  H  H7  1  0.12500000  0.37500000  0.25000000  1
  He  He8  1  0.78757238  0.75000000  0.03757238  1
  He  He9  1  0.71242762  0.25000000  0.46242762  1
  He  He10  1  0.75000000  0.28757238  0.03757238  1
  He  He11  1  0.25000000  0.21242762  0.46242762  1
  He  He12  1  0.21242762  0.25000000  0.96242762  1
  He  He13  1  0.28757238  0.75000000  0.53757238  1
  He  He14  1  0.25000000  0.71242762  0.96242762  1
  He  He15  1  0.75000000  0.78757238  0.53757238  1
  Li  Li16  1  0.16391595  0.22524761  0.56895284  1
  Li  Li17  1  0.65629477  0.09496311  0.93104716  1
  Li  Li18  1  0.59496311  0.66391595  0.93866834  1
  Li  Li19  1  0.72524761  0.15629477  0.56133166  1
  Li  Li20  1  0.33608405  0.40503689  0.56133166  1
  Li  Li21  1  0.84370523  0.27475239  0.93866834  1
  Li  Li22  1  0.90503689  0.34370523  0.56895284  1
  Li  Li23  1  0.77475239  0.83608405  0.93104716  1
  Li  Li24  1  0.83608405  0.77475239  0.43104716  1
  Li  Li25  1  0.34370523  0.90503689  0.06895284  1
  Li  Li26  1  0.40503689  0.33608405  0.06133166  1
  Li  Li27  1  0.27475239  0.84370523  0.43866834  1
  Li  Li28  1  0.66391595  0.59496311  0.43866834  1
  Li  Li29  1  0.15629477  0.72524761  0.06133166  1
  Li  Li30  1  0.09496311  0.65629477  0.43104716  1
  Li  Li31  1  0.22524761  0.16391595  0.06895284  1
  Li  Li32  1  0.08455486  0.11145328  0.20187648  1
  Li  Li33  1  0.90957680  0.38267838  0.29812352  1
  Li  Li34  1  0.88267838  0.58455486  0.97310158  1
  Li  Li35  1  0.61145328  0.40957680  0.52689842  1
  Li  Li36  1  0.41544514  0.11732162  0.52689842  1
  Li  Li37  1  0.59042320  0.38854672  0.97310158  1
  Li  Li38  1  0.61732162  0.09042320  0.20187648  1
  Li  Li39  1  0.88854672  0.91544514  0.29812352  1
  Li  Li40  1  0.91544514  0.88854672  0.79812352  1
  Li  Li41  1  0.09042320  0.61732162  0.70187648  1
  Li  Li42  1  0.11732162  0.41544514  0.02689842  1
  Li  Li43  1  0.38854672  0.59042320  0.47310158  1
  Li  Li44  1  0.58455486  0.88267838  0.47310158  1
  Li  Li45  1  0.40957680  0.61145328  0.02689842  1
  Li  Li46  1  0.38267838  0.90957680  0.79812352  1
  Li  Li47  1  0.11145328  0.08455486  0.70187648  1
