# generated using pymatgen
data_H2He
_symmetry_space_group_name_H-M   'P 1'
_cell_length_a   11.38577031
_cell_length_b   11.38577031
_cell_length_c   11.38577031
_cell_angle_alpha   147.28989294
_cell_angle_beta   147.28989294
_cell_angle_gamma   46.93473933
_symmetry_Int_Tables_number   1
_chemical_formula_structural   H2He
_chemical_formula_sum   'H8 He4'
_cell_volume   429.42103772
_cell_formula_units_Z   4
loop_
 _symmetry_equiv_pos_site_id
 _symmetry_equiv_pos_as_xyz
  1  'x, y, z'
loop_
 _atom_site_type_symbol
 _atom_site_label
 _atom_site_symmetry_multiplicity
 _atom_site_fract_x
 _atom_site_fract_y
 _atom_site_fract_z
 _atom_site_occupancy
  H  H0  1  0.72794697  0.96931600  0.24136903  1
  H  H1  1  0.72794697  0.48657794  0.75863097  1
  H  H2  1  0.23657794  0.97794697  0.25863097  1
  H  H3  1  0.71931600  0.97794697  0.74136903  1
  H  H4  1  0.02205303  0.76342206  0.74136903  1
  H  H5  1  0.02205303  0.28068400  0.25863097  1
  H  H6  1  0.51342206  0.27205303  0.24136903  1
  H  H7  1  0.03068400  0.27205303  0.75863097  1
  He  He8  1  0.87500000  0.12500000  0.25000000  1
  He  He9  1  0.87500000  0.62500000  0.75000000  1
  He  He10  1  0.37500000  0.12500000  0.25000000  1
  He  He11  1  0.87500000  0.12500000  0.75000000  1
