# generated using pymatgen
data_HHeLi
_symmetry_space_group_name_H-M   'P 1'
_cell_length_a   7.75194623
_cell_length_b   7.75185497
_cell_length_c   4.71631323
_cell_angle_alpha   90.00000000
_cell_angle_beta   90.00000000
_cell_angle_gamma   120.00038944
_symmetry_Int_Tables_number   1
_chemical_formula_structural   HHeLi
_chemical_formula_sum   'H3 He3 Li3'
_cell_volume   245.44147870
_cell_formula_units_Z   3
loop_
 _symmetry_equiv_pos_site_id
 _symmetry_equiv_pos_as_xyz
  1  'x, y, z'
loop_
 _atom_site_type_symbol
 _atom_site_label
 _atom_site_symmetry_multiplicity
 _atom_site_fract_x
 _atom_site_fract_y
 _atom_site_fract_z
 _atom_site_occupancy
  H  H0  1  0.99999951  0.42303754  0.50000000  1
  H  H1  1  0.57696197  0.57696246  0.50000000  1
  H  H2  1  0.42303522  0.00000000  0.50000000  1
  He  He3  1  0.00000850  0.74710064  0.00000000  1
  He  He4  1  0.25290786  0.25289936  0.00000000  1
  He  He5  1  0.74708900  -0.00000000  0.00000000  1
  Li  Li6  1  0.99999651  0.00000000  0.50000000  1
  Li  Li7  1  0.66667110  0.33334078  0.00000000  1
  Li  Li8  1  0.33333032  0.66665922  0.00000000  1
