# generated using pymatgen
data_HHeLi3
_symmetry_space_group_name_H-M   'P 1'
_cell_length_a   5.61050453
_cell_length_b   5.81502979
_cell_length_c   7.87735937
_cell_angle_alpha   90.00000000
_cell_angle_beta   90.00000000
_cell_angle_gamma   90.00000000
_symmetry_Int_Tables_number   1
_chemical_formula_structural   HHeLi3
_chemical_formula_sum   'H4 He4 Li12'
_cell_volume   257.00082654
_cell_formula_units_Z   4
loop_
 _symmetry_equiv_pos_site_id
 _symmetry_equiv_pos_as_xyz
  1  'x, y, z'
loop_
 _atom_site_type_symbol
 _atom_site_label
 _atom_site_symmetry_multiplicity
 _atom_site_fract_x
 _atom_site_fract_y
 _atom_site_fract_z
 _atom_site_occupancy
  H  H0  1  0.01035185  0.05132289  0.75000000  1
  H  H1  1  0.51035185  0.44867711  0.25000000  1
  H  H2  1  0.98964815  0.94867711  0.25000000  1
  H  H3  1  0.48964815  0.55132289  0.75000000  1
  He  He4  1  0.50000000  0.00000000  0.00000000  1
  He  He5  1  0.00000000  0.50000000  0.00000000  1
  He  He6  1  0.50000000  0.00000000  0.50000000  1
  He  He7  1  0.00000000  0.50000000  0.50000000  1
  Li  Li8  1  0.92106721  0.48378995  0.75000000  1
  Li  Li9  1  0.42106721  0.01621005  0.25000000  1
  Li  Li10  1  0.07893279  0.51621005  0.25000000  1
  Li  Li11  1  0.57893279  0.98378995  0.75000000  1
  Li  Li12  1  0.77748324  0.19813754  0.45860283  1
  Li  Li13  1  0.27748324  0.30186246  0.54139717  1
  Li  Li14  1  0.22251676  0.80186246  0.95860283  1
  Li  Li15  1  0.72251676  0.69813754  0.04139717  1
  Li  Li16  1  0.22251676  0.80186246  0.54139717  1
  Li  Li17  1  0.72251676  0.69813754  0.45860283  1
  Li  Li18  1  0.77748324  0.19813754  0.04139717  1
  Li  Li19  1  0.27748324  0.30186246  0.95860283  1
