# generated using pymatgen
data_H3He6Li20
_symmetry_space_group_name_H-M   'P 1'
_cell_length_a   8.62161591
_cell_length_b   8.62161591
_cell_length_c   8.62161591
_cell_angle_alpha   60.00000000
_cell_angle_beta   60.00000000
_cell_angle_gamma   60.00000000
_symmetry_Int_Tables_number   1
_chemical_formula_structural   H3He6Li20
_chemical_formula_sum   'H3 He6 Li20'
_cell_volume   453.15942334
_cell_formula_units_Z   1
loop_
 _symmetry_equiv_pos_site_id
 _symmetry_equiv_pos_as_xyz
  1  'x, y, z'
loop_
 _atom_site_type_symbol
 _atom_site_label
 _atom_site_symmetry_multiplicity
 _atom_site_fract_x
 _atom_site_fract_y
 _atom_site_fract_z
 _atom_site_occupancy
  H  H0  1  0.00000000  0.00000000  -0.00000000  1
  H  H1  1  0.25000000  0.25000000  0.25000000  1
  H  H2  1  0.75000000  0.75000000  0.75000000  1
  He  He3  1  0.26474344  0.73525656  0.26474344  1
  He  He4  1  0.73525656  0.26474344  0.73525656  1
  He  He5  1  0.26474344  0.26474344  0.73525656  1
  He  He6  1  0.73525656  0.73525656  0.26474344  1
  He  He7  1  0.26474344  0.73525656  0.73525656  1
  He  He8  1  0.73525656  0.26474344  0.26474344  1
  Li  Li9  1  0.65605155  0.34394845  0.00000000  1
  Li  Li10  1  0.00000000  -0.00000000  0.34394845  1
  Li  Li11  1  0.34394845  0.65605155  0.00000000  1
  Li  Li12  1  0.00000000  -0.00000000  0.65605155  1
  Li  Li13  1  0.65605155  0.00000000  -0.00000000  1
  Li  Li14  1  0.00000000  0.34394845  0.65605155  1
  Li  Li15  1  0.34394845  0.00000000  -0.00000000  1
  Li  Li16  1  -0.00000000  0.65605155  0.34394845  1
  Li  Li17  1  0.65605155  0.00000000  0.34394845  1
  Li  Li18  1  -0.00000000  0.65605155  0.00000000  1
  Li  Li19  1  0.34394845  0.00000000  0.65605155  1
  Li  Li20  1  -0.00000000  0.34394845  0.00000000  1
  Li  Li21  1  0.38337078  0.38337078  0.38337078  1
  Li  Li22  1  0.84988765  0.38337078  0.38337078  1
  Li  Li23  1  0.38337078  0.38337078  0.84988765  1
  Li  Li24  1  0.38337078  0.84988765  0.38337078  1
  Li  Li25  1  0.15011235  0.61662922  0.61662922  1
  Li  Li26  1  0.61662922  0.61662922  0.61662922  1
  Li  Li27  1  0.61662922  0.61662922  0.15011235  1
  Li  Li28  1  0.61662922  0.15011235  0.61662922  1
