# generated using pymatgen
data_H2He8Li2Be
_symmetry_space_group_name_H-M   'P 1'
_cell_length_a   8.65463753
_cell_length_b   8.65463753
_cell_length_c   5.31376584
_cell_angle_alpha   90.00000000
_cell_angle_beta   90.00000000
_cell_angle_gamma   90.00000000
_symmetry_Int_Tables_number   1
_chemical_formula_structural   H2He8Li2Be
_chemical_formula_sum   'H4 He16 Li4 Be2'
_cell_volume   398.01567869
_cell_formula_units_Z   2
loop_
 _symmetry_equiv_pos_site_id
 _symmetry_equiv_pos_as_xyz
  1  'x, y, z'
loop_
 _atom_site_type_symbol
 _atom_site_label
 _atom_site_symmetry_multiplicity
 _atom_site_fract_x
 _atom_site_fract_y
 _atom_site_fract_z
 _atom_site_occupancy
  H  H0  1  0.32677356  0.82677356  0.01757257  1
  H  H1  1  0.67322644  0.17322644  0.01757257  1
  H  H2  1  0.17322644  0.32677356  0.01757257  1
  H  H3  1  0.82677356  0.67322644  0.01757257  1
  He  He4  1  0.00000000  0.50000000  0.38266596  1
  He  He5  1  0.50000000  -0.00000000  0.38266596  1
  He  He6  1  0.12609865  0.62609865  0.80265119  1
  He  He7  1  0.87390135  0.37390135  0.80265119  1
  He  He8  1  0.37390135  0.12609865  0.80265119  1
  He  He9  1  0.62609865  0.87390135  0.80265119  1
  He  He10  1  0.29179507  0.57711867  0.36903673  1
  He  He11  1  0.70820493  0.42288133  0.36903673  1
  He  He12  1  0.42288133  0.29179507  0.36903673  1
  He  He13  1  0.57711867  0.70820493  0.36903673  1
  He  He14  1  0.79179507  0.92288133  0.36903673  1
  He  He15  1  0.20820493  0.07711867  0.36903673  1
  He  He16  1  0.92288133  0.20820493  0.36903673  1
  He  He17  1  0.07711867  0.79179507  0.36903673  1
  He  He18  1  -0.00000000  -0.00000000  0.80420156  1
  He  He19  1  0.50000000  0.50000000  0.80420156  1
  Li  Li20  1  0.12768164  0.62768164  0.50026692  1
  Li  Li21  1  0.87231836  0.37231836  0.50026692  1
  Li  Li22  1  0.37231836  0.12768164  0.50026692  1
  Li  Li23  1  0.62768164  0.87231836  0.50026692  1
  Be  Be24  1  0.00000000  0.00000000  0.47690419  1
  Be  Be25  1  0.50000000  0.50000000  0.47690419  1
