# generated using pymatgen
data_H3He2
_symmetry_space_group_name_H-M   'P 1'
_cell_length_a   7.04141677
_cell_length_b   7.04141677
_cell_length_c   7.04141677
_cell_angle_alpha   109.47122063
_cell_angle_beta   109.47122063
_cell_angle_gamma   109.47122063
_symmetry_Int_Tables_number   1
_chemical_formula_structural   H3He2
_chemical_formula_sum   'H12 He8'
_cell_volume   268.75605643
_cell_formula_units_Z   4
loop_
 _symmetry_equiv_pos_site_id
 _symmetry_equiv_pos_as_xyz
  1  'x, y, z'
loop_
 _atom_site_type_symbol
 _atom_site_label
 _atom_site_symmetry_multiplicity
 _atom_site_fract_x
 _atom_site_fract_y
 _atom_site_fract_z
 _atom_site_occupancy
  H  H0  1  0.28936652  0.53936652  0.25000000  1
  H  H1  1  0.21063348  0.96063348  0.75000000  1
  H  H2  1  0.96063348  0.25000000  0.71063348  1
  H  H3  1  0.53936652  0.75000000  0.78936652  1
  H  H4  1  0.75000000  0.28936652  0.03936652  1
  H  H5  1  0.25000000  0.21063348  0.46063348  1
  H  H6  1  0.71063348  0.75000000  0.96063348  1
  H  H7  1  0.78936652  0.25000000  0.53936652  1
  H  H8  1  0.03936652  0.78936652  0.75000000  1
  H  H9  1  0.46063348  0.71063348  0.25000000  1
  H  H10  1  0.25000000  0.03936652  0.28936652  1
  H  H11  1  0.75000000  0.46063348  0.21063348  1
  He  He12  1  0.00000000  0.09771439  0.00000000  1
  He  He13  1  0.50000000  0.00000000  0.59771439  1
  He  He14  1  0.40228561  0.40228561  0.90228561  1
  He  He15  1  0.09771439  0.50000000  0.50000000  1
  He  He16  1  0.00000000  0.59771439  0.00000000  1
  He  He17  1  0.50000000  0.00000000  0.09771439  1
  He  He18  1  0.59771439  0.50000000  0.50000000  1
  He  He19  1  0.90228561  0.90228561  0.40228561  1
