# generated using pymatgen
data_HHeLi4Be
_symmetry_space_group_name_H-M   'P 1'
_cell_length_a   4.85714419
_cell_length_b   6.37535546
_cell_length_c   10.88062997
_cell_angle_alpha   90.00000000
_cell_angle_beta   90.00000000
_cell_angle_gamma   90.00000000
_symmetry_Int_Tables_number   1
_chemical_formula_structural   HHeLi4Be
_chemical_formula_sum   'H4 He4 Li16 Be4'
_cell_volume   336.92981270
_cell_formula_units_Z   4
loop_
 _symmetry_equiv_pos_site_id
 _symmetry_equiv_pos_as_xyz
  1  'x, y, z'
loop_
 _atom_site_type_symbol
 _atom_site_label
 _atom_site_symmetry_multiplicity
 _atom_site_fract_x
 _atom_site_fract_y
 _atom_site_fract_z
 _atom_site_occupancy
  H  H0  1  0.04381064  0.75000000  0.21620828  1
  H  H1  1  0.54381064  0.25000000  0.28379172  1
  H  H2  1  0.95618936  0.25000000  0.78379172  1
  H  H3  1  0.45618936  0.75000000  0.71620828  1
  He  He4  1  0.50000000  0.00000000  0.00000000  1
  He  He5  1  0.00000000  0.00000000  0.50000000  1
  He  He6  1  0.50000000  0.50000000  0.00000000  1
  He  He7  1  0.00000000  0.50000000  0.50000000  1
  Li  Li8  1  0.21213197  0.75000000  0.90752697  1
  Li  Li9  1  0.71213197  0.25000000  0.59247303  1
  Li  Li10  1  0.78786803  0.25000000  0.09247303  1
  Li  Li11  1  0.28786803  0.75000000  0.40752697  1
  Li  Li12  1  0.77394726  0.75000000  0.04387267  1
  Li  Li13  1  0.27394726  0.25000000  0.45612733  1
  Li  Li14  1  0.22605274  0.25000000  0.95612733  1
  Li  Li15  1  0.72605274  0.75000000  0.54387267  1
  Li  Li16  1  0.76386818  0.55492045  0.84477130  1
  Li  Li17  1  0.26386818  0.44507955  0.65522870  1
  Li  Li18  1  0.23613182  0.05492045  0.15522870  1
  Li  Li19  1  0.73613182  0.94507955  0.34477130  1
  Li  Li20  1  0.23613182  0.44507955  0.15522870  1
  Li  Li21  1  0.73613182  0.55492045  0.34477130  1
  Li  Li22  1  0.76386818  0.94507955  0.84477130  1
  Li  Li23  1  0.26386818  0.05492045  0.65522870  1
  Be  Be24  1  0.89588602  0.75000000  0.91121497  1
  Be  Be25  1  0.39588602  0.25000000  0.58878503  1
  Be  Be26  1  0.10411398  0.25000000  0.08878503  1
  Be  Be27  1  0.60411398  0.75000000  0.41121497  1
