# generated using pymatgen
data_H3HeLi3
_symmetry_space_group_name_H-M   'P 1'
_cell_length_a   4.16632130
_cell_length_b   11.39157475
_cell_length_c   20.00798747
_cell_angle_alpha   90.00000000
_cell_angle_beta   90.00000000
_cell_angle_gamma   90.00000000
_symmetry_Int_Tables_number   1
_chemical_formula_structural   H3HeLi3
_chemical_formula_sum   'H12 He4 Li12'
_cell_volume   949.59830351
_cell_formula_units_Z   4
loop_
 _symmetry_equiv_pos_site_id
 _symmetry_equiv_pos_as_xyz
  1  'x, y, z'
loop_
 _atom_site_type_symbol
 _atom_site_label
 _atom_site_symmetry_multiplicity
 _atom_site_fract_x
 _atom_site_fract_y
 _atom_site_fract_z
 _atom_site_occupancy
  H  H0  1  0.16404592  0.16039248  0.36744908  1
  H  H1  1  0.66404592  0.83960752  0.63255092  1
  H  H2  1  0.16404592  0.66039248  0.13255092  1
  H  H3  1  0.66404592  0.33960752  0.86744908  1
  H  H4  1  0.66091568  0.32730633  0.50547153  1
  H  H5  1  0.16091568  0.67269367  0.49452847  1
  H  H6  1  0.66091568  0.82730633  0.99452847  1
  H  H7  1  0.16091568  0.17269367  0.00547153  1
  H  H8  1  0.66050985  0.44093149  0.40025473  1
  H  H9  1  0.16050985  0.55906851  0.59974527  1
  H  H10  1  0.66050985  0.94093149  0.09974527  1
  H  H11  1  0.16050985  0.05906851  0.90025473  1
  He  He12  1  0.16086228  0.94413329  0.33016722  1
  He  He13  1  0.66086228  0.05586671  0.66983278  1
  He  He14  1  0.16086228  0.44413329  0.16983278  1
  He  He15  1  0.66086228  0.55586671  0.83016722  1
  Li  Li16  1  0.66399657  0.26771353  0.30796336  1
  Li  Li17  1  0.16399657  0.73228647  0.69203664  1
  Li  Li18  1  0.66399657  0.76771353  0.19203664  1
  Li  Li19  1  0.16399657  0.23228647  0.80796336  1
  Li  Li20  1  0.16058677  0.58325741  0.37003570  1
  Li  Li21  1  0.66058677  0.41674259  0.62996430  1
  Li  Li22  1  0.16058677  0.08325741  0.12996430  1
  Li  Li23  1  0.66058677  0.91674259  0.87003570  1
  Li  Li24  1  0.16129194  0.17363260  0.50097539  1
  Li  Li25  1  0.66129194  0.82636740  0.49902461  1
  Li  Li26  1  0.16129194  0.67363260  0.99902461  1
  Li  Li27  1  0.66129194  0.32636740  0.00097539  1
