# generated using pymatgen
data_HHe3Li
_symmetry_space_group_name_H-M   'P 1'
_cell_length_a   5.58045739
_cell_length_b   5.58045739
_cell_length_c   5.58045739
_cell_angle_alpha   55.65192002
_cell_angle_beta   55.65192002
_cell_angle_gamma   55.65192002
_symmetry_Int_Tables_number   1
_chemical_formula_structural   HHe3Li
_chemical_formula_sum   'H2 He6 Li2'
_cell_volume   110.48622181
_cell_formula_units_Z   2
loop_
 _symmetry_equiv_pos_site_id
 _symmetry_equiv_pos_as_xyz
  1  'x, y, z'
loop_
 _atom_site_type_symbol
 _atom_site_label
 _atom_site_symmetry_multiplicity
 _atom_site_fract_x
 _atom_site_fract_y
 _atom_site_fract_z
 _atom_site_occupancy
  H  H0  1  0.64406047  0.64406047  0.64406047  1
  H  H1  1  0.35593953  0.35593953  0.35593953  1
  He  He2  1  0.77701835  0.04941994  0.43663725  1
  He  He3  1  0.04941994  0.43663725  0.77701835  1
  He  He4  1  0.43663725  0.77701835  0.04941994  1
  He  He5  1  0.22298165  0.95058006  0.56336275  1
  He  He6  1  0.95058006  0.56336275  0.22298165  1
  He  He7  1  0.56336275  0.22298165  0.95058006  1
  Li  Li8  1  0.84932804  0.84932804  0.84932804  1
  Li  Li9  1  0.15067196  0.15067196  0.15067196  1
