# generated using pymatgen
data_H2He4Li
_symmetry_space_group_name_H-M   'P 1'
_cell_length_a   6.87305599
_cell_length_b   6.87305599
_cell_length_c   13.92440846
_cell_angle_alpha   65.03096734
_cell_angle_beta   65.03096734
_cell_angle_gamma   58.83604196
_symmetry_Int_Tables_number   1
_chemical_formula_structural   H2He4Li
_chemical_formula_sum   'H8 He16 Li4'
_cell_volume   492.34075434
_cell_formula_units_Z   4
loop_
 _symmetry_equiv_pos_site_id
 _symmetry_equiv_pos_as_xyz
  1  'x, y, z'
loop_
 _atom_site_type_symbol
 _atom_site_label
 _atom_site_symmetry_multiplicity
 _atom_site_fract_x
 _atom_site_fract_y
 _atom_site_fract_z
 _atom_site_occupancy
  H  H0  1  0.83919432  0.08707028  0.79171056  1
  H  H1  1  0.58707028  0.33919432  0.29171056  1
  H  H2  1  0.89475836  0.62969269  0.80918942  1
  H  H3  1  0.12969269  0.39475836  0.30918942  1
  H  H4  1  0.38211464  0.14236902  0.80700875  1
  H  H5  1  0.64236902  0.88211464  0.30700875  1
  H  H6  1  0.33742659  0.59064473  0.79490313  1
  H  H7  1  0.09064473  0.83742659  0.29490313  1
  He  He8  1  0.62271876  0.87174875  0.93799266  1
  He  He9  1  0.37174875  0.12271876  0.43799266  1
  He  He10  1  0.10516911  0.85101995  0.66157598  1
  He  He11  1  0.35101995  0.60516911  0.16157598  1
  He  He12  1  0.08583932  0.34001521  0.69140051  1
  He  He13  1  0.84001521  0.58583932  0.19140051  1
  He  He14  1  0.64125132  0.38373681  0.90847531  1
  He  He15  1  0.88373681  0.14125132  0.40847531  1
  He  He16  1  0.58931216  0.83746109  0.69506777  1
  He  He17  1  0.33746109  0.08931216  0.19506777  1
  He  He18  1  0.13488749  0.89009047  0.90864511  1
  He  He19  1  0.39009047  0.63488749  0.40864511  1
  He  He20  1  0.12425186  0.36872010  0.94155365  1
  He  He21  1  0.86872010  0.62425186  0.44155365  1
  He  He22  1  0.60188334  0.35841589  0.66170599  1
  He  He23  1  0.85841589  0.10188334  0.16170599  1
  Li  Li24  1  0.24070554  0.48829932  0.04872303  1
  Li  Li25  1  0.98829932  0.74070554  0.54872303  1
  Li  Li26  1  0.48692115  0.23628173  0.55304812  1
  Li  Li27  1  0.73628173  0.98692115  0.05304812  1
