# generated using pymatgen
data_HHeLi3
_symmetry_space_group_name_H-M   'P 1'
_cell_length_a   5.05664798
_cell_length_b   8.84860866
_cell_length_c   16.50042793
_cell_angle_alpha   90.00000000
_cell_angle_beta   90.00000000
_cell_angle_gamma   90.00000000
_symmetry_Int_Tables_number   1
_chemical_formula_structural   HHeLi3
_chemical_formula_sum   'H4 He4 Li12'
_cell_volume   738.30008273
_cell_formula_units_Z   4
loop_
 _symmetry_equiv_pos_site_id
 _symmetry_equiv_pos_as_xyz
  1  'x, y, z'
loop_
 _atom_site_type_symbol
 _atom_site_label
 _atom_site_symmetry_multiplicity
 _atom_site_fract_x
 _atom_site_fract_y
 _atom_site_fract_z
 _atom_site_occupancy
  H  H0  1  0.29427263  0.75000000  0.75000000  1
  H  H1  1  0.70572737  0.25000000  0.75000000  1
  H  H2  1  0.70572737  0.25000000  0.25000000  1
  H  H3  1  0.29427263  0.75000000  0.25000000  1
  He  He4  1  -0.00000000  0.00000000  0.67557307  1
  He  He5  1  0.00000000  0.50000000  0.82442693  1
  He  He6  1  -0.00000000  0.00000000  0.32442693  1
  He  He7  1  0.00000000  0.50000000  0.17557307  1
  Li  Li8  1  0.37577879  0.78353195  0.50000000  1
  Li  Li9  1  0.62422121  0.28353195  0.00000000  1
  Li  Li10  1  0.37577879  0.71646805  0.00000000  1
  Li  Li11  1  0.62422121  0.21646805  0.50000000  1
  Li  Li12  1  0.63604793  0.63902148  0.62574799  1
  Li  Li13  1  0.36395207  0.13902148  0.87425201  1
  Li  Li14  1  0.63604793  0.86097852  0.87425201  1
  Li  Li15  1  0.36395207  0.36097852  0.62574799  1
  Li  Li16  1  0.36395207  0.36097852  0.37425201  1
  Li  Li17  1  0.63604793  0.86097852  0.12574799  1
  Li  Li18  1  0.36395207  0.13902148  0.12574799  1
  Li  Li19  1  0.63604793  0.63902148  0.37425201  1
