# generated using pymatgen
data_H15He4
_symmetry_space_group_name_H-M   'P 1'
_cell_length_a   8.05208381
_cell_length_b   8.05208381
_cell_length_c   8.05208381
_cell_angle_alpha   109.47122063
_cell_angle_beta   109.47122063
_cell_angle_gamma   109.47122063
_symmetry_Int_Tables_number   1
_chemical_formula_structural   H15He4
_chemical_formula_sum   'H30 He8'
_cell_volume   401.88608445
_cell_formula_units_Z   2
loop_
 _symmetry_equiv_pos_site_id
 _symmetry_equiv_pos_as_xyz
  1  'x, y, z'
loop_
 _atom_site_type_symbol
 _atom_site_label
 _atom_site_symmetry_multiplicity
 _atom_site_fract_x
 _atom_site_fract_y
 _atom_site_fract_z
 _atom_site_occupancy
  H  H0  1  0.75000000  0.37500000  0.12500000  1
  H  H1  1  0.25000000  0.12500000  0.37500000  1
  H  H2  1  0.37500000  0.62500000  0.25000000  1
  H  H3  1  0.12500000  0.87500000  0.75000000  1
  H  H4  1  0.87500000  0.25000000  0.62500000  1
  H  H5  1  0.62500000  0.75000000  0.87500000  1
  H  H6  1  0.81264911  0.58900540  0.96515577  1
  H  H7  1  0.87615037  0.91099460  0.22364371  1
  H  H8  1  0.62384963  0.34749335  0.53484423  1
  H  H9  1  0.68735089  0.15250665  0.27635629  1
  H  H10  1  0.15250665  0.77635629  0.18735089  1
  H  H11  1  0.34749335  0.03484423  0.12384963  1
  H  H12  1  0.91099460  0.72364371  0.37615037  1
  H  H13  1  0.58900540  0.46515577  0.31264911  1
  H  H14  1  0.03484423  0.62384963  0.84749335  1
  H  H15  1  0.77635629  0.68735089  0.65250665  1
  H  H16  1  0.46515577  0.81264911  0.08900540  1
  H  H17  1  0.72364371  0.87615037  0.41099460  1
  H  H18  1  0.96515577  0.08900540  0.81264911  1
  H  H19  1  0.22364371  0.41099460  0.87615037  1
  H  H20  1  0.53484423  0.84749335  0.62384963  1
  H  H21  1  0.27635629  0.65250665  0.68735089  1
  H  H22  1  0.18735089  0.27635629  0.15250665  1
  H  H23  1  0.12384963  0.53484423  0.34749335  1
  H  H24  1  0.37615037  0.22364371  0.91099460  1
  H  H25  1  0.31264911  0.96515577  0.58900540  1
  H  H26  1  0.84749335  0.12384963  0.03484423  1
  H  H27  1  0.65250665  0.18735089  0.77635629  1
  H  H28  1  0.08900540  0.31264911  0.46515577  1
  H  H29  1  0.41099460  0.37615037  0.72364371  1
  He  He30  1  0.00000000  0.41361264  -0.00000000  1
  He  He31  1  0.08638736  0.08638736  0.58638736  1
  He  He32  1  0.41361264  0.50000000  0.50000000  1
  He  He33  1  0.50000000  0.00000000  0.91361264  1
  He  He34  1  -0.00000000  0.91361264  0.00000000  1
  He  He35  1  0.58638736  0.58638736  0.08638736  1
  He  He36  1  0.50000000  0.00000000  0.41361264  1
  He  He37  1  0.91361264  0.50000000  0.50000000  1
