# generated using pymatgen
data_H5He8
_symmetry_space_group_name_H-M   'P 1'
_cell_length_a   6.18226475
_cell_length_b   6.18234319
_cell_length_c   6.18225517
_cell_angle_alpha   60.48608402
_cell_angle_beta   60.48703293
_cell_angle_gamma   60.48628847
_symmetry_Int_Tables_number   1
_chemical_formula_structural   H5He8
_chemical_formula_sum   'H5 He8'
_cell_volume   168.92024032
_cell_formula_units_Z   1
loop_
 _symmetry_equiv_pos_site_id
 _symmetry_equiv_pos_as_xyz
  1  'x, y, z'
loop_
 _atom_site_type_symbol
 _atom_site_label
 _atom_site_symmetry_multiplicity
 _atom_site_fract_x
 _atom_site_fract_y
 _atom_site_fract_z
 _atom_site_occupancy
  H  H0  1  0.99997325  0.50002167  0.00002559  1
  H  H1  1  0.49996112  0.00001432  0.00001444  1
  H  H2  1  0.99997294  0.00002523  0.50001625  1
  H  H3  1  0.49996395  0.50002159  0.50001776  1
  H  H4  1  0.99996870  0.00001831  0.00001754  1
  He  He5  1  0.75011871  0.75017444  0.23833177  1
  He  He6  1  0.75011607  0.23832062  0.75017929  1
  He  He7  1  0.23827354  0.75017278  0.75017965  1
  He  He8  1  0.24980180  0.24987773  0.76170369  1
  He  He9  1  0.76165809  0.24987179  0.24985547  1
  He  He10  1  0.24980606  0.76172044  0.24986497  1
  He  He11  1  0.75555305  0.75559936  0.75559382  1
  He  He12  1  0.24439934  0.24442844  0.24443308  1
