# generated using pymatgen
data_H3He2Li2
_symmetry_space_group_name_H-M   'P 1'
_cell_length_a   4.09823114
_cell_length_b   9.70916609
_cell_length_c   10.23186506
_cell_angle_alpha   66.33901184
_cell_angle_beta   90.00000000
_cell_angle_gamma   90.00000000
_symmetry_Int_Tables_number   1
_chemical_formula_structural   H3He2Li2
_chemical_formula_sum   'H6 He4 Li4'
_cell_volume   372.90511599
_cell_formula_units_Z   2
loop_
 _symmetry_equiv_pos_site_id
 _symmetry_equiv_pos_as_xyz
  1  'x, y, z'
loop_
 _atom_site_type_symbol
 _atom_site_label
 _atom_site_symmetry_multiplicity
 _atom_site_fract_x
 _atom_site_fract_y
 _atom_site_fract_z
 _atom_site_occupancy
  H  H0  1  0.25000000  0.97258713  0.17349117  1
  H  H1  1  0.75000000  0.02741287  0.82650883  1
  H  H2  1  0.25000000  0.38589995  0.85594045  1
  H  H3  1  0.75000000  0.61410005  0.14405955  1
  H  H4  1  0.25000000  0.18762685  0.44107707  1
  H  H5  1  0.75000000  0.81237315  0.55892293  1
  He  He6  1  0.25000000  0.75201743  0.84738928  1
  He  He7  1  0.75000000  0.24798257  0.15261072  1
  He  He8  1  0.25000000  0.57902218  0.44480087  1
  He  He9  1  0.75000000  0.42097782  0.55519913  1
  Li  Li10  1  0.25000000  0.92934084  0.67573949  1
  Li  Li11  1  0.75000000  0.07065916  0.32426051  1
  Li  Li12  1  0.25000000  0.81798946  0.99949377  1
  Li  Li13  1  0.75000000  0.18201054  0.00050623  1
