# generated using pymatgen
data_HHe3Li2
_symmetry_space_group_name_H-M   'P 1'
_cell_length_a   6.90014080
_cell_length_b   6.90014080
_cell_length_c   6.90014080
_cell_angle_alpha   150.26182863
_cell_angle_beta   146.57009498
_cell_angle_gamma   45.34295051
_symmetry_Int_Tables_number   1
_chemical_formula_structural   HHe3Li2
_chemical_formula_sum   'H1 He3 Li2'
_cell_volume   89.49300286
_cell_formula_units_Z   1
loop_
 _symmetry_equiv_pos_site_id
 _symmetry_equiv_pos_as_xyz
  1  'x, y, z'
loop_
 _atom_site_type_symbol
 _atom_site_label
 _atom_site_symmetry_multiplicity
 _atom_site_fract_x
 _atom_site_fract_y
 _atom_site_fract_z
 _atom_site_occupancy
  H  H0  1  0.50000000  0.00000000  0.50000000  1
  He  He1  1  0.34512284  0.84512284  0.50000000  1
  He  He2  1  0.65487716  0.15487716  0.50000000  1
  He  He3  1  -0.00000000  -0.00000000  -0.00000000  1
  Li  Li4  1  0.14706456  0.64706456  0.50000000  1
  Li  Li5  1  0.85293544  0.35293544  0.50000000  1
