# generated using pymatgen
data_H6HeLi4
_symmetry_space_group_name_H-M   'P 1'
_cell_length_a   9.97182402
_cell_length_b   9.97182402
_cell_length_c   7.76161286
_cell_angle_alpha   90.00000000
_cell_angle_beta   90.00000000
_cell_angle_gamma   119.99981930
_symmetry_Int_Tables_number   1
_chemical_formula_structural   H6HeLi4
_chemical_formula_sum   'H12 He2 Li8'
_cell_volume   668.39410451
_cell_formula_units_Z   2
loop_
 _symmetry_equiv_pos_site_id
 _symmetry_equiv_pos_as_xyz
  1  'x, y, z'
loop_
 _atom_site_type_symbol
 _atom_site_label
 _atom_site_symmetry_multiplicity
 _atom_site_fract_x
 _atom_site_fract_y
 _atom_site_fract_z
 _atom_site_occupancy
  H  H0  1  0.14658546  0.85341454  0.54179753  1
  H  H1  1  0.14658895  0.29317661  0.54179762  1
  H  H2  1  0.70682339  0.85341105  0.54179762  1
  H  H3  1  0.85341454  0.14658546  0.04179753  1
  H  H4  1  0.85341105  0.70682339  0.04179762  1
  H  H5  1  0.29317661  0.14658895  0.04179762  1
  H  H6  1  0.53052505  0.46947495  0.36670073  1
  H  H7  1  0.53052513  0.06104781  0.36670447  1
  H  H8  1  0.93895219  0.46947487  0.36670447  1
  H  H9  1  0.46947495  0.53052505  0.86670073  1
  H  H10  1  0.46947487  0.93895219  0.86670447  1
  H  H11  1  0.06104781  0.53052513  0.86670447  1
  He  He12  1  0.33333152  0.66666848  0.25208951  1
  He  He13  1  0.66666848  0.33333152  0.75208951  1
  Li  Li14  1  0.33333180  0.66666820  0.57576307  1
  Li  Li15  1  0.66666820  0.33333180  0.07576307  1
  Li  Li16  1  0.19491024  0.80508976  0.15144741  1
  Li  Li17  1  0.19491361  0.38982609  0.15144879  1
  Li  Li18  1  0.61017391  0.80508639  0.15144879  1
  Li  Li19  1  0.80508976  0.19491024  0.65144741  1
  Li  Li20  1  0.80508639  0.61017391  0.65144879  1
  Li  Li21  1  0.38982609  0.19491361  0.65144879  1
