# generated using pymatgen
data_HHe5Li2
_symmetry_space_group_name_H-M   'P 1'
_cell_length_a   6.71196401
_cell_length_b   7.58077540
_cell_length_c   11.63504880
_cell_angle_alpha   90.00000000
_cell_angle_beta   90.00000000
_cell_angle_gamma   90.00000000
_symmetry_Int_Tables_number   1
_chemical_formula_structural   HHe5Li2
_chemical_formula_sum   'H4 He20 Li8'
_cell_volume   592.01329244
_cell_formula_units_Z   4
loop_
 _symmetry_equiv_pos_site_id
 _symmetry_equiv_pos_as_xyz
  1  'x, y, z'
loop_
 _atom_site_type_symbol
 _atom_site_label
 _atom_site_symmetry_multiplicity
 _atom_site_fract_x
 _atom_site_fract_y
 _atom_site_fract_z
 _atom_site_occupancy
  H  H0  1  0.06218352  0.75000000  0.04532435  1
  H  H1  1  0.56218352  0.25000000  0.45467565  1
  H  H2  1  0.93781648  0.25000000  0.95467565  1
  H  H3  1  0.43781648  0.75000000  0.54532435  1
  He  He4  1  0.39041314  0.75000000  0.98806704  1
  He  He5  1  0.89041314  0.25000000  0.51193296  1
  He  He6  1  0.60958686  0.25000000  0.01193296  1
  He  He7  1  0.10958686  0.75000000  0.48806704  1
  He  He8  1  0.80743561  0.75000000  0.17043664  1
  He  He9  1  0.30743561  0.25000000  0.32956336  1
  He  He10  1  0.19256439  0.25000000  0.82956336  1
  He  He11  1  0.69256439  0.75000000  0.67043664  1
  He  He12  1  0.22460624  0.75000000  0.21517041  1
  He  He13  1  0.72460624  0.25000000  0.28482959  1
  He  He14  1  0.77539376  0.25000000  0.78482959  1
  He  He15  1  0.27539376  0.75000000  0.71517041  1
  He  He16  1  0.88832402  0.54506512  0.90648243  1
  He  He17  1  0.38832402  0.45493488  0.59351757  1
  He  He18  1  0.11167598  0.04506512  0.09351757  1
  He  He19  1  0.61167598  0.95493488  0.40648243  1
  He  He20  1  0.11167598  0.45493488  0.09351757  1
  He  He21  1  0.61167598  0.54506512  0.40648243  1
  He  He22  1  0.88832402  0.95493488  0.90648243  1
  He  He23  1  0.38832402  0.04506512  0.59351757  1
  Li  Li24  1  0.50632185  0.50089637  0.16962640  1
  Li  Li25  1  0.00632185  0.49910363  0.33037360  1
  Li  Li26  1  0.49367815  0.00089637  0.83037360  1
  Li  Li27  1  0.99367815  0.99910363  0.66962640  1
  Li  Li28  1  0.49367815  0.49910363  0.83037360  1
  Li  Li29  1  0.99367815  0.50089637  0.66962640  1
  Li  Li30  1  0.50632185  0.99910363  0.16962640  1
  Li  Li31  1  0.00632185  0.00089637  0.33037360  1
