# generated using pymatgen
data_HHeLi
_symmetry_space_group_name_H-M   'P 1'
_cell_length_a   6.59860669
_cell_length_b   6.59860669
_cell_length_c   6.59860669
_cell_angle_alpha   90.00000000
_cell_angle_beta   90.00000000
_cell_angle_gamma   90.00000000
_symmetry_Int_Tables_number   1
_chemical_formula_structural   HHeLi
_chemical_formula_sum   'H4 He4 Li4'
_cell_volume   287.31396027
_cell_formula_units_Z   4
loop_
 _symmetry_equiv_pos_site_id
 _symmetry_equiv_pos_as_xyz
  1  'x, y, z'
loop_
 _atom_site_type_symbol
 _atom_site_label
 _atom_site_symmetry_multiplicity
 _atom_site_fract_x
 _atom_site_fract_y
 _atom_site_fract_z
 _atom_site_occupancy
  H  H0  1  0.13983472  0.13983472  0.13983472  1
  H  H1  1  0.36016528  0.86016528  0.63983472  1
  H  H2  1  0.86016528  0.63983472  0.36016528  1
  H  H3  1  0.63983472  0.36016528  0.86016528  1
  He  He4  1  0.41626144  0.41626144  0.41626144  1
  He  He5  1  0.08373856  0.58373856  0.91626144  1
  He  He6  1  0.58373856  0.91626144  0.08373856  1
  He  He7  1  0.91626144  0.08373856  0.58373856  1
  Li  Li8  1  0.84929375  0.84929375  0.84929375  1
  Li  Li9  1  0.65070625  0.15070625  0.34929375  1
  Li  Li10  1  0.15070625  0.34929375  0.65070625  1
  Li  Li11  1  0.34929375  0.65070625  0.15070625  1
