# generated using pymatgen
data_HHe3Li
_symmetry_space_group_name_H-M   'P 1'
_cell_length_a   7.45021913
_cell_length_b   7.45021913
_cell_length_c   5.62917764
_cell_angle_alpha   80.46198337
_cell_angle_beta   80.46198337
_cell_angle_gamma   87.91185352
_symmetry_Int_Tables_number   1
_chemical_formula_structural   HHe3Li
_chemical_formula_sum   'H4 He12 Li4'
_cell_volume   303.85982250
_cell_formula_units_Z   4
loop_
 _symmetry_equiv_pos_site_id
 _symmetry_equiv_pos_as_xyz
  1  'x, y, z'
loop_
 _atom_site_type_symbol
 _atom_site_label
 _atom_site_symmetry_multiplicity
 _atom_site_fract_x
 _atom_site_fract_y
 _atom_site_fract_z
 _atom_site_occupancy
  H  H0  1  0.59190658  0.40809342  0.75000000  1
  H  H1  1  0.40809342  0.59190658  0.25000000  1
  H  H2  1  0.22949174  0.77050826  0.75000000  1
  H  H3  1  0.77050826  0.22949174  0.25000000  1
  He  He4  1  0.54208821  0.73410574  0.84069904  1
  He  He5  1  0.26589426  0.45791179  0.65930096  1
  He  He6  1  0.45791179  0.26589426  0.15930096  1
  He  He7  1  0.73410574  0.54208821  0.34069904  1
  He  He8  1  0.64798541  0.09062384  0.65996100  1
  He  He9  1  0.90937616  0.35201459  0.84003900  1
  He  He10  1  0.35201459  0.90937616  0.34003900  1
  He  He11  1  0.09062384  0.64798541  0.15996100  1
  He  He12  1  0.89633931  0.80143773  0.56539165  1
  He  He13  1  0.19856227  0.10366069  0.93460835  1
  He  He14  1  0.10366069  0.19856227  0.43460835  1
  He  He15  1  0.80143773  0.89633931  0.06539165  1
  Li  Li16  1  0.71588627  0.88437715  0.78243180  1
  Li  Li17  1  0.11562285  0.28411373  0.71756820  1
  Li  Li18  1  0.28411373  0.11562285  0.21756820  1
  Li  Li19  1  0.88437715  0.71588627  0.28243180  1
