# generated using pymatgen
data_H5He
_symmetry_space_group_name_H-M   'P 1'
_cell_length_a   5.03633970
_cell_length_b   5.03283312
_cell_length_c   3.93401613
_cell_angle_alpha   90.00000000
_cell_angle_beta   90.00000000
_cell_angle_gamma   120.02305070
_symmetry_Int_Tables_number   1
_chemical_formula_structural   H5He
_chemical_formula_sum   'H5 He1'
_cell_volume   86.33629176
_cell_formula_units_Z   1
loop_
 _symmetry_equiv_pos_site_id
 _symmetry_equiv_pos_as_xyz
  1  'x, y, z'
loop_
 _atom_site_type_symbol
 _atom_site_label
 _atom_site_symmetry_multiplicity
 _atom_site_fract_x
 _atom_site_fract_y
 _atom_site_fract_z
 _atom_site_occupancy
  H  H0  1  0.66666694  0.33333388  0.00000000  1
  H  H1  1  0.33333306  0.66666612  0.00000000  1
  H  H2  1  0.00000000  0.50000000  0.50000000  1
  H  H3  1  0.50000000  0.50000000  0.50000000  1
  H  H4  1  0.50000000  0.00000000  0.50000000  1
  He  He5  1  0.00000000  0.00000000  0.00000000  1
