# generated using pymatgen
data_H3HeLi
_symmetry_space_group_name_H-M   'P 1'
_cell_length_a   5.49850290
_cell_length_b   5.49850290
_cell_length_c   5.49850290
_cell_angle_alpha   55.49364943
_cell_angle_beta   55.49364943
_cell_angle_gamma   55.49364943
_symmetry_Int_Tables_number   1
_chemical_formula_structural   H3HeLi
_chemical_formula_sum   'H6 He2 Li2'
_cell_volume   105.24945085
_cell_formula_units_Z   2
loop_
 _symmetry_equiv_pos_site_id
 _symmetry_equiv_pos_as_xyz
  1  'x, y, z'
loop_
 _atom_site_type_symbol
 _atom_site_label
 _atom_site_symmetry_multiplicity
 _atom_site_fract_x
 _atom_site_fract_y
 _atom_site_fract_z
 _atom_site_occupancy
  H  H0  1  0.44030294  0.76644283  0.05313156  1
  H  H1  1  0.76644283  0.05313156  0.44030294  1
  H  H2  1  0.05313156  0.44030294  0.76644283  1
  H  H3  1  0.55969706  0.23355717  0.94686844  1
  H  H4  1  0.23355717  0.94686844  0.55969706  1
  H  H5  1  0.94686844  0.55969706  0.23355717  1
  He  He6  1  0.85157221  0.85157221  0.85157221  1
  He  He7  1  0.14842779  0.14842779  0.14842779  1
  Li  Li8  1  0.64044454  0.64044454  0.64044454  1
  Li  Li9  1  0.35955546  0.35955546  0.35955546  1
