# generated using pymatgen
data_H13He6
_symmetry_space_group_name_H-M   'P 1'
_cell_length_a   6.34608674
_cell_length_b   6.34608674
_cell_length_c   10.25408559
_cell_angle_alpha   79.57525848
_cell_angle_beta   79.57525848
_cell_angle_gamma   34.22322583
_symmetry_Int_Tables_number   1
_chemical_formula_structural   H13He6
_chemical_formula_sum   'H13 He6'
_cell_volume   228.05642964
_cell_formula_units_Z   1
loop_
 _symmetry_equiv_pos_site_id
 _symmetry_equiv_pos_as_xyz
  1  'x, y, z'
loop_
 _atom_site_type_symbol
 _atom_site_label
 _atom_site_symmetry_multiplicity
 _atom_site_fract_x
 _atom_site_fract_y
 _atom_site_fract_z
 _atom_site_occupancy
  H  H0  1  0.50000000  0.50000000  0.00000000  1
  H  H1  1  0.81895969  0.81895969  0.00007556  1
  H  H2  1  0.18104031  0.18104031  0.99992444  1
  H  H3  1  0.61355319  0.61355319  0.19725001  1
  H  H4  1  0.38644681  0.38644681  0.80274999  1
  H  H5  1  0.32378174  0.32378174  0.19810097  1
  H  H6  1  0.67621826  0.67621826  0.80189903  1
  H  H7  1  0.74739784  0.74739784  0.41044678  1
  H  H8  1  0.25260216  0.25260216  0.58955322  1
  H  H9  1  0.11978476  0.11978476  0.38467947  1
  H  H10  1  0.88021524  0.88021524  0.61532053  1
  H  H11  1  0.43960890  0.43960890  0.40914636  1
  H  H12  1  0.56039110  0.56039110  0.59085364  1
  He  He13  1  0.64789747  0.64789747  0.99798681  1
  He  He14  1  0.35210253  0.35210253  0.00201319  1
  He  He15  1  0.58717463  0.58717463  0.36383549  1
  He  He16  1  0.41282537  0.41282537  0.63616451  1
  He  He17  1  0.28683026  0.28683026  0.36573521  1
  He  He18  1  0.71316974  0.71316974  0.63426479  1
