# generated using pymatgen
data_H2
_symmetry_space_group_name_H-M   'P 1'
_cell_length_a   5.32790309
_cell_length_b   5.32790309
_cell_length_c   5.32790309
_cell_angle_alpha   146.99391310
_cell_angle_beta   111.26195699
_cell_angle_gamma   78.39021370
_symmetry_Int_Tables_number   1
_chemical_formula_structural   H2
_chemical_formula_sum   H2
_cell_volume   75.18468922
_cell_formula_units_Z   1
loop_
 _symmetry_equiv_pos_site_id
 _symmetry_equiv_pos_as_xyz
  1  'x, y, z'
loop_
 _atom_site_type_symbol
 _atom_site_label
 _atom_site_symmetry_multiplicity
 _atom_site_fract_x
 _atom_site_fract_y
 _atom_site_fract_z
 _atom_site_occupancy
  H  H0  1  0.25000000  0.49896705  0.24896705  1
  H  H1  1  0.75000000  0.50103295  0.75103295  1
