# generated using pymatgen
data_H2He3
_symmetry_space_group_name_H-M   'P 1'
_cell_length_a   8.91007273
_cell_length_b   8.91007273
_cell_length_c   7.13792642
_cell_angle_alpha   90.00000000
_cell_angle_beta   90.00000000
_cell_angle_gamma   90.00000000
_symmetry_Int_Tables_number   1
_chemical_formula_structural   H2He3
_chemical_formula_sum   'H8 He12'
_cell_volume   566.67566816
_cell_formula_units_Z   4
loop_
 _symmetry_equiv_pos_site_id
 _symmetry_equiv_pos_as_xyz
  1  'x, y, z'
loop_
 _atom_site_type_symbol
 _atom_site_label
 _atom_site_symmetry_multiplicity
 _atom_site_fract_x
 _atom_site_fract_y
 _atom_site_fract_z
 _atom_site_occupancy
  H  H0  1  0.13903430  0.13903430  0.20999391  1
  H  H1  1  0.86096570  0.86096570  0.20999391  1
  H  H2  1  0.36096570  0.63903430  0.70999391  1
  H  H3  1  0.63903430  0.36096570  0.70999391  1
  H  H4  1  0.36096570  0.63903430  0.29000609  1
  H  H5  1  0.63903430  0.36096570  0.29000609  1
  H  H6  1  0.13903430  0.13903430  0.79000609  1
  H  H7  1  0.86096570  0.86096570  0.79000609  1
  He  He8  1  0.00000000  0.50000000  0.00000000  1
  He  He9  1  0.00000000  0.50000000  0.50000000  1
  He  He10  1  0.50000000  -0.00000000  0.50000000  1
  He  He11  1  0.50000000  -0.00000000  0.00000000  1
  He  He12  1  0.36416968  0.36416968  -0.00000000  1
  He  He13  1  0.63583032  0.63583032  0.00000000  1
  He  He14  1  0.13583032  0.86416968  0.50000000  1
  He  He15  1  0.86416968  0.13583032  0.50000000  1
  He  He16  1  0.17626618  0.82373382  -0.00000000  1
  He  He17  1  0.82373382  0.17626618  0.00000000  1
  He  He18  1  0.67626618  0.67626618  0.50000000  1
  He  He19  1  0.32373382  0.32373382  0.50000000  1
