# generated using pymatgen
data_HHe4Li
_symmetry_space_group_name_H-M   'P 1'
_cell_length_a   7.23089238
_cell_length_b   7.23089238
_cell_length_c   7.23089238
_cell_angle_alpha   135.39249640
_cell_angle_beta   135.39249640
_cell_angle_gamma   64.92095684
_symmetry_Int_Tables_number   1
_chemical_formula_structural   HHe4Li
_chemical_formula_sum   'H2 He8 Li2'
_cell_volume   183.78812948
_cell_formula_units_Z   2
loop_
 _symmetry_equiv_pos_site_id
 _symmetry_equiv_pos_as_xyz
  1  'x, y, z'
loop_
 _atom_site_type_symbol
 _atom_site_label
 _atom_site_symmetry_multiplicity
 _atom_site_fract_x
 _atom_site_fract_y
 _atom_site_fract_z
 _atom_site_occupancy
  H  H0  1  0.12500000  0.87500000  0.25000000  1
  H  H1  1  0.87500000  0.12500000  0.75000000  1
  He  He2  1  0.07174676  0.71805756  0.87711295  1
  He  He3  1  0.34094461  0.19463381  0.62288705  1
  He  He4  1  0.19463381  0.07174676  0.85368920  1
  He  He5  1  0.71805756  0.34094461  0.64631080  1
  He  He6  1  0.92825324  0.28194244  0.12288705  1
  He  He7  1  0.65905539  0.80536619  0.37711295  1
  He  He8  1  0.80536619  0.92825324  0.14631080  1
  He  He9  1  0.28194244  0.65905539  0.35368920  1
  Li  Li10  1  0.62500000  0.37500000  0.25000000  1
  Li  Li11  1  0.37500000  0.62500000  0.75000000  1
