# generated using pymatgen
data_H3He2Li2
_symmetry_space_group_name_H-M   'P 1'
_cell_length_a   6.05973872
_cell_length_b   6.05973872
_cell_length_c   5.69267384
_cell_angle_alpha   69.20650785
_cell_angle_beta   69.20650785
_cell_angle_gamma   31.86218685
_symmetry_Int_Tables_number   1
_chemical_formula_structural   H3He2Li2
_chemical_formula_sum   'H3 He2 Li2'
_cell_volume   102.55116345
_cell_formula_units_Z   1
loop_
 _symmetry_equiv_pos_site_id
 _symmetry_equiv_pos_as_xyz
  1  'x, y, z'
loop_
 _atom_site_type_symbol
 _atom_site_label
 _atom_site_symmetry_multiplicity
 _atom_site_fract_x
 _atom_site_fract_y
 _atom_site_fract_z
 _atom_site_occupancy
  H  H0  1  -0.00000000  -0.00000000  0.00000000  1
  H  H1  1  0.24794391  0.24794391  0.26401460  1
  H  H2  1  0.75205609  0.75205609  0.73598540  1
  He  He3  1  0.61088059  0.61088059  0.17276522  1
  He  He4  1  0.38911941  0.38911941  0.82723478  1
  Li  Li5  1  0.84433804  0.84433804  0.32750367  1
  Li  Li6  1  0.15566196  0.15566196  0.67249633  1
