# generated using pymatgen
data_HHe
_symmetry_space_group_name_H-M   'P 1'
_cell_length_a   4.80676730
_cell_length_b   4.80676730
_cell_length_c   4.80676730
_cell_angle_alpha   90.00000000
_cell_angle_beta   90.00000000
_cell_angle_gamma   90.00000000
_symmetry_Int_Tables_number   1
_chemical_formula_structural   HHe
_chemical_formula_sum   'H4 He4'
_cell_volume   111.06041562
_cell_formula_units_Z   4
loop_
 _symmetry_equiv_pos_site_id
 _symmetry_equiv_pos_as_xyz
  1  'x, y, z'
loop_
 _atom_site_type_symbol
 _atom_site_label
 _atom_site_symmetry_multiplicity
 _atom_site_fract_x
 _atom_site_fract_y
 _atom_site_fract_z
 _atom_site_occupancy
  H  H0  1  0.13447829  0.13447829  0.13447829  1
  H  H1  1  0.36552171  0.86552171  0.63447829  1
  H  H2  1  0.86552171  0.63447829  0.36552171  1
  H  H3  1  0.63447829  0.36552171  0.86552171  1
  He  He4  1  0.84487560  0.84487560  0.84487560  1
  He  He5  1  0.65512440  0.15512440  0.34487560  1
  He  He6  1  0.15512440  0.34487560  0.65512440  1
  He  He7  1  0.34487560  0.65512440  0.15512440  1
