# generated using pymatgen
data_H3He2
_symmetry_space_group_name_H-M   'P 1'
_cell_length_a   7.27673277
_cell_length_b   7.27673277
_cell_length_c   8.69638776
_cell_angle_alpha   79.92343018
_cell_angle_beta   79.92343018
_cell_angle_gamma   27.96320882
_symmetry_Int_Tables_number   1
_chemical_formula_structural   H3He2
_chemical_formula_sum   'H9 He6'
_cell_volume   212.38279792
_cell_formula_units_Z   3
loop_
 _symmetry_equiv_pos_site_id
 _symmetry_equiv_pos_as_xyz
  1  'x, y, z'
loop_
 _atom_site_type_symbol
 _atom_site_label
 _atom_site_symmetry_multiplicity
 _atom_site_fract_x
 _atom_site_fract_y
 _atom_site_fract_z
 _atom_site_occupancy
  H  H0  1  0.12799179  0.12799179  0.71830242  1
  H  H1  1  0.87200821  0.87200821  0.28169758  1
  H  H2  1  0.82555618  0.82555618  0.96952504  1
  H  H3  1  0.17444382  0.17444382  0.03047496  1
  H  H4  1  0.79332321  0.79332321  0.62259571  1
  H  H5  1  0.20667679  0.20667679  0.37740429  1
  H  H6  1  0.47101523  0.47101523  0.65721763  1
  H  H7  1  0.52898477  0.52898477  0.34278237  1
  H  H8  1  0.50000000  0.50000000  -0.00000000  1
  He  He9  1  0.63518043  0.63518043  0.51195842  1
  He  He10  1  0.36481957  0.36481957  0.48804158  1
  He  He11  1  0.69142038  0.69142038  0.86252582  1
  He  He12  1  0.30857962  0.30857962  0.13747418  1
  He  He13  1  0.96797305  0.96797305  0.81396370  1
  He  He14  1  0.03202695  0.03202695  0.18603630  1
