# generated using pymatgen
data_H3He2
_symmetry_space_group_name_H-M   'P 1'
_cell_length_a   6.44939653
_cell_length_b   6.44939653
_cell_length_c   4.32943566
_cell_angle_alpha   90.00000000
_cell_angle_beta   90.00000000
_cell_angle_gamma   90.00000000
_symmetry_Int_Tables_number   1
_chemical_formula_structural   H3He2
_chemical_formula_sum   'H6 He4'
_cell_volume   180.08164499
_cell_formula_units_Z   2
loop_
 _symmetry_equiv_pos_site_id
 _symmetry_equiv_pos_as_xyz
  1  'x, y, z'
loop_
 _atom_site_type_symbol
 _atom_site_label
 _atom_site_symmetry_multiplicity
 _atom_site_fract_x
 _atom_site_fract_y
 _atom_site_fract_z
 _atom_site_occupancy
  H  H0  1  0.00000000  0.00000000  0.00000000  1
  H  H1  1  0.50000000  0.50000000  0.00000000  1
  H  H2  1  0.14654341  0.35345659  0.75051148  1
  H  H3  1  0.85345659  0.64654341  0.75051148  1
  H  H4  1  0.35345659  0.85345659  0.24948852  1
  H  H5  1  0.64654341  0.14654341  0.24948852  1
  He  He6  1  0.27328553  0.22671447  0.25777462  1
  He  He7  1  0.72671447  0.77328553  0.25777462  1
  He  He8  1  0.22671447  0.72671447  0.74222538  1
  He  He9  1  0.77328553  0.27328553  0.74222538  1
