# generated using pymatgen
data_H2HeLi2
_symmetry_space_group_name_H-M   'P 1'
_cell_length_a   6.68424907
_cell_length_b   3.87347425
_cell_length_c   3.87347425
_cell_angle_alpha   59.98034142
_cell_angle_beta   90.16951643
_cell_angle_gamma   90.16951643
_symmetry_Int_Tables_number   1
_chemical_formula_structural   H2HeLi2
_chemical_formula_sum   'H2 He1 Li2'
_cell_volume   86.83523914
_cell_formula_units_Z   1
loop_
 _symmetry_equiv_pos_site_id
 _symmetry_equiv_pos_as_xyz
  1  'x, y, z'
loop_
 _atom_site_type_symbol
 _atom_site_label
 _atom_site_symmetry_multiplicity
 _atom_site_fract_x
 _atom_site_fract_y
 _atom_site_fract_z
 _atom_site_occupancy
  H  H0  1  0.62990887  0.32866175  0.32866175  1
  H  H1  1  0.37009113  0.67133825  0.67133825  1
  He  He2  1  -0.00000000  0.00000000  0.00000000  1
  Li  Li3  1  0.28261173  0.33223977  0.33223977  1
  Li  Li4  1  0.71738827  0.66776023  0.66776023  1
