# generated using pymatgen
data_H3He4Li12Be
_symmetry_space_group_name_H-M   'P 1'
_cell_length_a   6.47206276
_cell_length_b   6.47206276
_cell_length_c   6.47206276
_cell_angle_alpha   109.47122063
_cell_angle_beta   109.47122063
_cell_angle_gamma   109.47122063
_symmetry_Int_Tables_number   1
_chemical_formula_structural   H3He4Li12Be
_chemical_formula_sum   'H3 He4 Li12 Be1'
_cell_volume   208.69222490
_cell_formula_units_Z   1
loop_
 _symmetry_equiv_pos_site_id
 _symmetry_equiv_pos_as_xyz
  1  'x, y, z'
loop_
 _atom_site_type_symbol
 _atom_site_label
 _atom_site_symmetry_multiplicity
 _atom_site_fract_x
 _atom_site_fract_y
 _atom_site_fract_z
 _atom_site_occupancy
  H  H0  1  0.50000000  0.00000000  0.50000000  1
  H  H1  1  0.50000000  0.50000000  0.00000000  1
  H  H2  1  -0.00000000  0.50000000  0.50000000  1
  He  He3  1  -0.00000000  0.50000000  -0.00000000  1
  He  He4  1  -0.00000000  -0.00000000  0.50000000  1
  He  He5  1  0.50000000  -0.00000000  -0.00000000  1
  He  He6  1  0.50000000  0.50000000  0.50000000  1
  Li  Li7  1  0.82920832  0.51371074  0.68450242  1
  Li  Li8  1  0.17079168  0.85529410  0.68450242  1
  Li  Li9  1  0.82920832  0.14470590  0.31549758  1
  Li  Li10  1  0.17079168  0.48628926  0.31549758  1
  Li  Li11  1  0.31549758  0.82920832  0.14470590  1
  Li  Li12  1  0.31549758  0.17079168  0.48628926  1
  Li  Li13  1  0.68450242  0.82920832  0.51371074  1
  Li  Li14  1  0.68450242  0.17079168  0.85529410  1
  Li  Li15  1  0.85529410  0.68450242  0.17079168  1
  Li  Li16  1  0.51371074  0.68450242  0.82920832  1
  Li  Li17  1  0.48628926  0.31549758  0.17079168  1
  Li  Li18  1  0.14470590  0.31549758  0.82920832  1
  Be  Be19  1  -0.00000000  0.00000000  0.00000000  1
