# generated using pymatgen
data_H2He4Li
_symmetry_space_group_name_H-M   'P 1'
_cell_length_a   8.16557695
_cell_length_b   6.55512606
_cell_length_c   8.28850923
_cell_angle_alpha   88.70758130
_cell_angle_beta   90.00000000
_cell_angle_gamma   90.00000000
_symmetry_Int_Tables_number   1
_chemical_formula_structural   H2He4Li
_chemical_formula_sum   'H8 He16 Li4'
_cell_volume   443.54108251
_cell_formula_units_Z   4
loop_
 _symmetry_equiv_pos_site_id
 _symmetry_equiv_pos_as_xyz
  1  'x, y, z'
loop_
 _atom_site_type_symbol
 _atom_site_label
 _atom_site_symmetry_multiplicity
 _atom_site_fract_x
 _atom_site_fract_y
 _atom_site_fract_z
 _atom_site_occupancy
  H  H0  1  0.00000000  -0.00000000  -0.00000000  1
  H  H1  1  0.50000000  0.00000000  0.50000000  1
  H  H2  1  0.00000000  0.50000000  -0.00000000  1
  H  H3  1  0.50000000  0.50000000  0.50000000  1
  H  H4  1  0.29409188  0.24989857  0.04818412  1
  H  H5  1  0.79409188  0.75010143  0.45181588  1
  H  H6  1  0.70590812  0.75010143  0.95181588  1
  H  H7  1  0.20590812  0.24989857  0.54818412  1
  He  He8  1  0.09040565  0.25163667  -0.05512610  1
  He  He9  1  0.59040565  0.74836333  0.55512610  1
  He  He10  1  0.90959435  0.74836333  0.05512610  1
  He  He11  1  0.40959435  0.25163667  0.44487390  1
  He  He12  1  0.46897581  0.75555782  0.93032862  1
  He  He13  1  0.96897581  0.24444218  0.56967138  1
  He  He14  1  0.53102419  0.24444218  0.06967138  1
  He  He15  1  0.03102419  0.75555782  0.43032862  1
  He  He16  1  0.23230132  0.95465572  0.09136452  1
  He  He17  1  0.73230132  0.04534428  0.40863548  1
  He  He18  1  0.76769868  0.04534428  0.90863548  1
  He  He19  1  0.26769868  0.95465572  0.59136452  1
  He  He20  1  0.23234748  0.54367363  0.08571579  1
  He  He21  1  0.73234748  0.45632637  0.41428421  1
  He  He22  1  0.76765252  0.45632637  0.91428421  1
  He  He23  1  0.26765252  0.54367363  0.58571579  1
  Li  Li24  1  0.36604752  0.74817288  0.11091386  1
  Li  Li25  1  0.86604752  0.25182712  0.38908614  1
  Li  Li26  1  0.63395248  0.25182712  0.88908614  1
  Li  Li27  1  0.13395248  0.74817288  0.61091386  1
