# generated using pymatgen
data_H4He3
_symmetry_space_group_name_H-M   'P 1'
_cell_length_a   8.68827096
_cell_length_b   10.04130299
_cell_length_c   11.01463756
_cell_angle_alpha   90.00000000
_cell_angle_beta   90.00000000
_cell_angle_gamma   90.00000000
_symmetry_Int_Tables_number   1
_chemical_formula_structural   H4He3
_chemical_formula_sum   'H16 He12'
_cell_volume   960.93417661
_cell_formula_units_Z   4
loop_
 _symmetry_equiv_pos_site_id
 _symmetry_equiv_pos_as_xyz
  1  'x, y, z'
loop_
 _atom_site_type_symbol
 _atom_site_label
 _atom_site_symmetry_multiplicity
 _atom_site_fract_x
 _atom_site_fract_y
 _atom_site_fract_z
 _atom_site_occupancy
  H  H0  1  0.25000000  0.00794366  0.92314477  1
  H  H1  1  0.75000000  0.49205634  0.42314477  1
  H  H2  1  0.75000000  0.99205634  0.07685523  1
  H  H3  1  0.25000000  0.50794366  0.57685523  1
  H  H4  1  0.25000000  0.16442831  0.44233590  1
  H  H5  1  0.75000000  0.33557169  0.94233590  1
  H  H6  1  0.75000000  0.83557169  0.55766410  1
  H  H7  1  0.25000000  0.66442831  0.05766410  1
  H  H8  1  0.10467043  0.35293672  0.71413311  1
  H  H9  1  0.89532957  0.14706328  0.21413311  1
  H  H10  1  0.60467043  0.64706328  0.28586689  1
  H  H11  1  0.39532957  0.85293672  0.78586689  1
  H  H12  1  0.89532957  0.64706328  0.28586689  1
  H  H13  1  0.10467043  0.85293672  0.78586689  1
  H  H14  1  0.39532957  0.35293672  0.71413311  1
  H  H15  1  0.60467043  0.14706328  0.21413311  1
  He  He16  1  0.04102399  0.17004242  0.58603922  1
  He  He17  1  0.95897601  0.32995758  0.08603922  1
  He  He18  1  0.54102399  0.82995758  0.41396078  1
  He  He19  1  0.45897601  0.67004242  0.91396078  1
  He  He20  1  0.95897601  0.82995758  0.41396078  1
  He  He21  1  0.04102399  0.67004242  0.91396078  1
  He  He22  1  0.45897601  0.17004242  0.58603922  1
  He  He23  1  0.54102399  0.32995758  0.08603922  1
  He  He24  1  0.25000000  0.39648203  0.38662331  1
  He  He25  1  0.75000000  0.10351797  0.88662331  1
  He  He26  1  0.75000000  0.60351797  0.61337669  1
  He  He27  1  0.25000000  0.89648203  0.11337669  1
