# generated using pymatgen
data_HHe(Li3Be)2
_symmetry_space_group_name_H-M   'P 1'
_cell_length_a   6.45096442
_cell_length_b   6.45096442
_cell_length_c   5.28924884
_cell_angle_alpha   76.96220881
_cell_angle_beta   76.96220881
_cell_angle_gamma   84.44199455
_symmetry_Int_Tables_number   1
_chemical_formula_structural   HHe(Li3Be)2
_chemical_formula_sum   'H2 He2 Li12 Be4'
_cell_volume   208.66464968
_cell_formula_units_Z   2
loop_
 _symmetry_equiv_pos_site_id
 _symmetry_equiv_pos_as_xyz
  1  'x, y, z'
loop_
 _atom_site_type_symbol
 _atom_site_label
 _atom_site_symmetry_multiplicity
 _atom_site_fract_x
 _atom_site_fract_y
 _atom_site_fract_z
 _atom_site_occupancy
  H  H0  1  0.90504132  0.09495868  0.25000000  1
  H  H1  1  0.09495868  0.90504132  0.75000000  1
  He  He2  1  0.30014420  0.69985580  0.25000000  1
  He  He3  1  0.69985580  0.30014420  0.75000000  1
  Li  Li4  1  0.96675481  0.81543079  0.12710249  1
  Li  Li5  1  0.18456921  0.03324519  0.37289751  1
  Li  Li6  1  0.03324519  0.18456921  0.87289751  1
  Li  Li7  1  0.81543079  0.96675481  0.62710249  1
  Li  Li8  1  0.90084569  0.37613040  0.29134447  1
  Li  Li9  1  0.62386960  0.09915431  0.20865553  1
  Li  Li10  1  0.09915431  0.62386960  0.70865553  1
  Li  Li11  1  0.37613040  0.90084569  0.79134447  1
  Li  Li12  1  0.65336815  0.64105244  0.00547421  1
  Li  Li13  1  0.35894756  0.34663185  0.49452579  1
  Li  Li14  1  0.34663185  0.35894756  0.99452579  1
  Li  Li15  1  0.64105244  0.65336815  0.50547421  1
  Be  Be16  1  0.80321539  0.61678017  0.22571868  1
  Be  Be17  1  0.38321983  0.19678461  0.27428132  1
  Be  Be18  1  0.19678461  0.38321983  0.77428132  1
  Be  Be19  1  0.61678017  0.80321539  0.72571868  1
