# generated using pymatgen
data_H4He4Li
_symmetry_space_group_name_H-M   'P 1'
_cell_length_a   6.49660767
_cell_length_b   7.71037265
_cell_length_c   13.66605016
_cell_angle_alpha   90.00000000
_cell_angle_beta   90.00000000
_cell_angle_gamma   90.00000000
_symmetry_Int_Tables_number   1
_chemical_formula_structural   H4He4Li
_chemical_formula_sum   'H16 He16 Li4'
_cell_volume   684.54975454
_cell_formula_units_Z   4
loop_
 _symmetry_equiv_pos_site_id
 _symmetry_equiv_pos_as_xyz
  1  'x, y, z'
loop_
 _atom_site_type_symbol
 _atom_site_label
 _atom_site_symmetry_multiplicity
 _atom_site_fract_x
 _atom_site_fract_y
 _atom_site_fract_z
 _atom_site_occupancy
  H  H0  1  0.12216510  0.01109429  0.33437901  1
  H  H1  1  0.62216510  0.98890571  0.16562099  1
  H  H2  1  0.87783490  0.51109429  0.66562099  1
  H  H3  1  0.37783490  0.48890571  0.83437901  1
  H  H4  1  0.87783490  0.98890571  0.66562099  1
  H  H5  1  0.37783490  0.01109429  0.83437901  1
  H  H6  1  0.12216510  0.48890571  0.33437901  1
  H  H7  1  0.62216510  0.51109429  0.16562099  1
  H  H8  1  0.56183033  0.75000000  0.33443650  1
  H  H9  1  0.06183033  0.25000000  0.16556350  1
  H  H10  1  0.43816967  0.25000000  0.66556350  1
  H  H11  1  0.93816967  0.75000000  0.83443650  1
  H  H12  1  0.89624411  0.75000000  0.42755604  1
  H  H13  1  0.39624411  0.25000000  0.07244396  1
  H  H14  1  0.10375589  0.25000000  0.57244396  1
  H  H15  1  0.60375589  0.75000000  0.92755604  1
  He  He16  1  0.26104085  0.00479331  0.17589764  1
  He  He17  1  0.76104085  0.99520669  0.32410236  1
  He  He18  1  0.73895915  0.50479331  0.82410236  1
  He  He19  1  0.23895915  0.49520669  0.67589764  1
  He  He20  1  0.73895915  0.99520669  0.82410236  1
  He  He21  1  0.23895915  0.00479331  0.67589764  1
  He  He22  1  0.26104085  0.49520669  0.17589764  1
  He  He23  1  0.76104085  0.50479331  0.32410236  1
  He  He24  1  0.73160493  0.75000000  0.08198514  1
  He  He25  1  0.23160493  0.25000000  0.41801486  1
  He  He26  1  0.26839507  0.25000000  0.91801486  1
  He  He27  1  0.76839507  0.75000000  0.58198514  1
  He  He28  1  0.24907969  0.75000000  0.40921239  1
  He  He29  1  0.74907969  0.25000000  0.09078761  1
  He  He30  1  0.75092031  0.25000000  0.59078761  1
  He  He31  1  0.25092031  0.75000000  0.90921239  1
  Li  Li32  1  0.11744888  0.75000000  0.08278658  1
  Li  Li33  1  0.61744888  0.25000000  0.41721342  1
  Li  Li34  1  0.88255112  0.25000000  0.91721342  1
  Li  Li35  1  0.38255112  0.75000000  0.58278658  1
