# generated using pymatgen
data_HHeLiBe
_symmetry_space_group_name_H-M   'P 1'
_cell_length_a   6.52496699
_cell_length_b   8.15643719
_cell_length_c   8.55027162
_cell_angle_alpha   90.00000000
_cell_angle_beta   90.00000000
_cell_angle_gamma   90.00000000
_symmetry_Int_Tables_number   1
_chemical_formula_structural   HHeLiBe
_chemical_formula_sum   'H4 He4 Li4 Be4'
_cell_volume   455.04958861
_cell_formula_units_Z   4
loop_
 _symmetry_equiv_pos_site_id
 _symmetry_equiv_pos_as_xyz
  1  'x, y, z'
loop_
 _atom_site_type_symbol
 _atom_site_label
 _atom_site_symmetry_multiplicity
 _atom_site_fract_x
 _atom_site_fract_y
 _atom_site_fract_z
 _atom_site_occupancy
  H  H0  1  0.25000000  0.17405500  0.44085466  1
  H  H1  1  0.75000000  0.32594500  0.94085466  1
  H  H2  1  0.75000000  0.82594500  0.55914534  1
  H  H3  1  0.25000000  0.67405500  0.05914534  1
  He  He4  1  0.25000000  0.17947971  0.89557936  1
  He  He5  1  0.75000000  0.32052029  0.39557936  1
  He  He6  1  0.75000000  0.82052029  0.10442064  1
  He  He7  1  0.25000000  0.67947971  0.60442064  1
  Li  Li8  1  0.25000000  0.28515409  0.53160905  1
  Li  Li9  1  0.75000000  0.21484591  0.03160905  1
  Li  Li10  1  0.75000000  0.71484591  0.46839095  1
  Li  Li11  1  0.25000000  0.78515409  0.96839095  1
  Be  Be12  1  0.25000000  0.02428097  0.31402749  1
  Be  Be13  1  0.75000000  0.47571903  0.81402749  1
  Be  Be14  1  0.75000000  0.97571903  0.68597251  1
  Be  Be15  1  0.25000000  0.52428097  0.18597251  1
