# generated using pymatgen
data_H7He24Li6
_symmetry_space_group_name_H-M   'P 1'
_cell_length_a   9.61300308
_cell_length_b   6.35349307
_cell_length_c   8.15431108
_cell_angle_alpha   79.37686891
_cell_angle_beta   65.65715911
_cell_angle_gamma   69.52287695
_symmetry_Int_Tables_number   1
_chemical_formula_structural   H7He24Li6
_chemical_formula_sum   'H7 He24 Li6'
_cell_volume   424.61385782
_cell_formula_units_Z   1
loop_
 _symmetry_equiv_pos_site_id
 _symmetry_equiv_pos_as_xyz
  1  'x, y, z'
loop_
 _atom_site_type_symbol
 _atom_site_label
 _atom_site_symmetry_multiplicity
 _atom_site_fract_x
 _atom_site_fract_y
 _atom_site_fract_z
 _atom_site_occupancy
  H  H0  1  0.02678049  0.02056034  0.78791802  1
  H  H1  1  0.97321951  0.97943966  0.21208198  1
  H  H2  1  0.50000000  0.50000000  0.50000000  1
  H  H3  1  0.39253410  0.22937715  0.95909835  1
  H  H4  1  0.60746590  0.77062285  0.04090165  1
  H  H5  1  0.80268692  0.48442741  0.67772871  1
  H  H6  1  0.19731308  0.51557259  0.32227129  1
  He  He7  1  0.42044716  0.89708329  0.95453475  1
  He  He8  1  0.57955284  0.10291671  0.04546525  1
  He  He9  1  0.73927773  0.80742070  0.76037770  1
  He  He10  1  0.26072227  0.19257930  0.23962230  1
  He  He11  1  0.65989073  0.45449717  0.97495791  1
  He  He12  1  0.34010927  0.54550283  0.02504209  1
  He  He13  1  0.01111983  0.35254537  0.75618654  1
  He  He14  1  0.98888017  0.64745463  0.24381346  1
  He  He15  1  0.85273982  0.13751595  0.68321886  1
  He  He16  1  0.14726018  0.86248405  0.31678114  1
  He  He17  1  0.20193768  0.00263541  0.55002593  1
  He  He18  1  0.79806232  0.99736459  0.44997407  1
  He  He19  1  0.15643797  0.92008999  0.95077650  1
  He  He20  1  0.84356203  0.07991001  0.04922350  1
  He  He21  1  0.41731324  0.71125943  0.70488860  1
  He  He22  1  0.58268676  0.28874057  0.29511140  1
  He  He23  1  0.56817553  0.21006107  0.71028753  1
  He  He24  1  0.43182447  0.78993893  0.28971247  1
  He  He25  1  0.22674135  0.33284005  0.86229384  1
  He  He26  1  0.77325865  0.66715995  0.13770616  1
  He  He27  1  0.03743709  0.70844967  0.79818196  1
  He  He28  1  0.96256291  0.29155033  0.20181804  1
  He  He29  1  0.73852447  0.53279618  0.45701011  1
  He  He30  1  0.26147553  0.46720382  0.54298989  1
  Li  Li31  1  0.13676342  0.46822605  0.74179089  1
  Li  Li32  1  0.86323658  0.53177395  0.25820911  1
  Li  Li33  1  0.73953997  0.03601725  0.64802910  1
  Li  Li34  1  0.26046003  0.96398275  0.35197090  1
  Li  Li35  1  0.33502576  0.76378767  0.90022155  1
  Li  Li36  1  0.66497424  0.23621233  0.09977845  1
