# generated using pymatgen
data_H5He3
_symmetry_space_group_name_H-M   'P 1'
_cell_length_a   11.11457646
_cell_length_b   9.17750361
_cell_length_c   7.47948069
_cell_angle_alpha   83.04017572
_cell_angle_beta   55.04811083
_cell_angle_gamma   41.91171345
_symmetry_Int_Tables_number   1
_chemical_formula_structural   H5He3
_chemical_formula_sum   'H10 He6'
_cell_volume   346.81271915
_cell_formula_units_Z   2
loop_
 _symmetry_equiv_pos_site_id
 _symmetry_equiv_pos_as_xyz
  1  'x, y, z'
loop_
 _atom_site_type_symbol
 _atom_site_label
 _atom_site_symmetry_multiplicity
 _atom_site_fract_x
 _atom_site_fract_y
 _atom_site_fract_z
 _atom_site_occupancy
  H  H0  1  0.05615639  0.94384361  0.05615639  1
  H  H1  1  0.80615639  0.69384361  0.80615639  1
  H  H2  1  0.25537625  0.41850462  0.57963285  1
  H  H3  1  0.57963285  0.74648628  0.25537625  1
  H  H4  1  0.33149538  0.49462375  0.00351372  1
  H  H5  1  0.00351372  0.17036715  0.33149538  1
  H  H6  1  0.47699624  0.15157288  0.72417493  1
  H  H7  1  0.72417493  0.64725595  0.47699624  1
  H  H8  1  0.59842712  0.27300376  0.10274405  1
  H  H9  1  0.10274405  0.02582507  0.59842712  1
  He  He10  1  0.93087512  0.90479605  0.56377797  1
  He  He11  1  0.56377797  0.60055086  0.93087512  1
  He  He12  1  0.84520395  0.81912488  0.14944914  1
  He  He13  1  0.14944914  0.18622203  0.84520395  1
  He  He14  1  0.50491025  0.49508975  0.50491025  1
  He  He15  1  0.25491025  0.24508975  0.25491025  1
