# generated using pymatgen
data_HHe2Li
_symmetry_space_group_name_H-M   'P 1'
_cell_length_a   8.65520671
_cell_length_b   8.65520671
_cell_length_c   4.25316590
_cell_angle_alpha   90.00000000
_cell_angle_beta   90.00000000
_cell_angle_gamma   151.25445786
_symmetry_Int_Tables_number   1
_chemical_formula_structural   HHe2Li
_chemical_formula_sum   'H2 He4 Li2'
_cell_volume   153.22885336
_cell_formula_units_Z   2
loop_
 _symmetry_equiv_pos_site_id
 _symmetry_equiv_pos_as_xyz
  1  'x, y, z'
loop_
 _atom_site_type_symbol
 _atom_site_label
 _atom_site_symmetry_multiplicity
 _atom_site_fract_x
 _atom_site_fract_y
 _atom_site_fract_z
 _atom_site_occupancy
  H  H0  1  0.10842716  0.89157284  0.25000000  1
  H  H1  1  0.89157284  0.10842716  0.75000000  1
  He  He2  1  0.45651294  0.54348706  0.25000000  1
  He  He3  1  0.54348706  0.45651294  0.75000000  1
  He  He4  1  0.74987186  0.25012814  0.25000000  1
  He  He5  1  0.25012814  0.74987186  0.75000000  1
  Li  Li6  1  0.31617635  0.68382365  0.25000000  1
  Li  Li7  1  0.68382365  0.31617635  0.75000000  1
