# generated using pymatgen
data_HHe2Li4
_symmetry_space_group_name_H-M   'P 1'
_cell_length_a   6.51747740
_cell_length_b   6.51747740
_cell_length_c   6.51747740
_cell_angle_alpha   128.83139764
_cell_angle_beta   128.83139764
_cell_angle_gamma   75.28201372
_symmetry_Int_Tables_number   1
_chemical_formula_structural   HHe2Li4
_chemical_formula_sum   'H1 He2 Li4'
_cell_volume   163.52569839
_cell_formula_units_Z   1
loop_
 _symmetry_equiv_pos_site_id
 _symmetry_equiv_pos_as_xyz
  1  'x, y, z'
loop_
 _atom_site_type_symbol
 _atom_site_label
 _atom_site_symmetry_multiplicity
 _atom_site_fract_x
 _atom_site_fract_y
 _atom_site_fract_z
 _atom_site_occupancy
  H  H0  1  0.00000000  0.00000000  0.00000000  1
  He  He1  1  0.50000000  0.50000000  0.00000000  1
  He  He2  1  0.75000000  0.25000000  0.50000000  1
  Li  Li3  1  0.40730104  0.40374943  0.53923497  1
  Li  Li4  1  0.86451446  0.86806607  0.46076503  1
  Li  Li5  1  0.59625057  0.13548554  0.00355161  1
  Li  Li6  1  0.13193393  0.59269896  0.99644839  1
