# generated using pymatgen
data_H3He2Li
_symmetry_space_group_name_H-M   'P 1'
_cell_length_a   4.12890422
_cell_length_b   4.13029154
_cell_length_c   6.20035733
_cell_angle_alpha   89.99023698
_cell_angle_beta   90.00000000
_cell_angle_gamma   119.98888947
_symmetry_Int_Tables_number   1
_chemical_formula_structural   H3He2Li
_chemical_formula_sum   'H3 He2 Li1'
_cell_volume   91.58228404
_cell_formula_units_Z   1
loop_
 _symmetry_equiv_pos_site_id
 _symmetry_equiv_pos_as_xyz
  1  'x, y, z'
loop_
 _atom_site_type_symbol
 _atom_site_label
 _atom_site_symmetry_multiplicity
 _atom_site_fract_x
 _atom_site_fract_y
 _atom_site_fract_z
 _atom_site_occupancy
  H  H0  1  -0.00000000  -0.00000000  0.50000000  1
  H  H1  1  0.66679181  0.33358362  0.87883374  1
  H  H2  1  0.33320819  0.66641638  0.12116626  1
  He  He3  1  0.66677377  0.33354755  0.29717891  1
  He  He4  1  0.33322623  0.66645245  0.70282109  1
  Li  Li5  1  0.00000000  0.00000000  0.00000000  1
