# generated using pymatgen
data_HHeLi4Be
_symmetry_space_group_name_H-M   'P 1'
_cell_length_a   5.63753900
_cell_length_b   5.63753900
_cell_length_c   6.55306266
_cell_angle_alpha   90.00000000
_cell_angle_beta   90.00000000
_cell_angle_gamma   116.05838944
_symmetry_Int_Tables_number   1
_chemical_formula_structural   HHeLi4Be
_chemical_formula_sum   'H2 He2 Li8 Be2'
_cell_volume   187.09728464
_cell_formula_units_Z   2
loop_
 _symmetry_equiv_pos_site_id
 _symmetry_equiv_pos_as_xyz
  1  'x, y, z'
loop_
 _atom_site_type_symbol
 _atom_site_label
 _atom_site_symmetry_multiplicity
 _atom_site_fract_x
 _atom_site_fract_y
 _atom_site_fract_z
 _atom_site_occupancy
  H  H0  1  0.18952906  0.81047094  0.25000000  1
  H  H1  1  0.81047094  0.18952906  0.75000000  1
  He  He2  1  0.50000000  0.50000000  0.00000000  1
  He  He3  1  0.50000000  0.50000000  0.50000000  1
  Li  Li4  1  0.75454770  0.24545230  0.43430927  1
  Li  Li5  1  0.24545230  0.75454770  0.93430927  1
  Li  Li6  1  0.75454770  0.24545230  0.06569073  1
  Li  Li7  1  0.24545230  0.75454770  0.56569073  1
  Li  Li8  1  0.73980889  0.83402781  0.25000000  1
  Li  Li9  1  0.26019111  0.16597219  0.75000000  1
  Li  Li10  1  0.16597219  0.26019111  0.25000000  1
  Li  Li11  1  0.83402781  0.73980889  0.75000000  1
  Be  Be12  1  0.86088037  0.13911963  0.25000000  1
  Be  Be13  1  0.13911963  0.86088037  0.75000000  1
