# generated using pymatgen
data_HHe4Li
_symmetry_space_group_name_H-M   'P 1'
_cell_length_a   5.57242879
_cell_length_b   5.57242879
_cell_length_c   4.72292015
_cell_angle_alpha   88.22822965
_cell_angle_beta   88.22822965
_cell_angle_gamma   64.30084250
_symmetry_Int_Tables_number   1
_chemical_formula_structural   HHe4Li
_chemical_formula_sum   'H2 He8 Li2'
_cell_volume   132.06108722
_cell_formula_units_Z   2
loop_
 _symmetry_equiv_pos_site_id
 _symmetry_equiv_pos_as_xyz
  1  'x, y, z'
loop_
 _atom_site_type_symbol
 _atom_site_label
 _atom_site_symmetry_multiplicity
 _atom_site_fract_x
 _atom_site_fract_y
 _atom_site_fract_z
 _atom_site_occupancy
  H  H0  1  0.74038935  0.74038935  0.49042941  1
  H  H1  1  0.25961065  0.25961065  0.50957059  1
  He  He2  1  0.09669378  0.60838288  0.29425937  1
  He  He3  1  0.39161712  0.90330622  0.70574063  1
  He  He4  1  0.90330622  0.39161712  0.70574063  1
  He  He5  1  0.60838288  0.09669378  0.29425937  1
  He  He6  1  0.88920583  0.88920583  0.78487651  1
  He  He7  1  0.11079417  0.11079417  0.21512349  1
  He  He8  1  0.59178866  0.59178866  0.19063752  1
  He  He9  1  0.40821134  0.40821134  0.80936248  1
  Li  Li10  1  0.77115862  0.22884138  0.00000000  1
  Li  Li11  1  0.22884138  0.77115862  -0.00000000  1
