# generated using pymatgen
data_H24He3Li8Be
_symmetry_space_group_name_H-M   'P 1'
_cell_length_a   8.45794498
_cell_length_b   8.45794498
_cell_length_c   8.45794498
_cell_angle_alpha   90.00000000
_cell_angle_beta   90.00000000
_cell_angle_gamma   90.00000000
_symmetry_Int_Tables_number   1
_chemical_formula_structural   H24He3Li8Be
_chemical_formula_sum   'H24 He3 Li8 Be1'
_cell_volume   605.05459982
_cell_formula_units_Z   1
loop_
 _symmetry_equiv_pos_site_id
 _symmetry_equiv_pos_as_xyz
  1  'x, y, z'
loop_
 _atom_site_type_symbol
 _atom_site_label
 _atom_site_symmetry_multiplicity
 _atom_site_fract_x
 _atom_site_fract_y
 _atom_site_fract_z
 _atom_site_occupancy
  H  H0  1  0.00000000  0.33707467  0.33707467  1
  H  H1  1  0.00000000  0.66292533  0.33707467  1
  H  H2  1  -0.00000000  0.33707467  0.66292533  1
  H  H3  1  -0.00000000  0.66292533  0.66292533  1
  H  H4  1  0.33707467  0.00000000  0.33707467  1
  H  H5  1  0.33707467  0.00000000  0.66292533  1
  H  H6  1  0.66292533  -0.00000000  0.33707467  1
  H  H7  1  0.66292533  -0.00000000  0.66292533  1
  H  H8  1  0.33707467  0.33707467  -0.00000000  1
  H  H9  1  0.66292533  0.33707467  0.00000000  1
  H  H10  1  0.33707467  0.66292533  -0.00000000  1
  H  H11  1  0.66292533  0.66292533  0.00000000  1
  H  H12  1  0.50000000  0.27181548  0.27181548  1
  H  H13  1  0.50000000  0.72818452  0.27181548  1
  H  H14  1  0.50000000  0.27181548  0.72818452  1
  H  H15  1  0.50000000  0.72818452  0.72818452  1
  H  H16  1  0.27181548  0.50000000  0.27181548  1
  H  H17  1  0.27181548  0.50000000  0.72818452  1
  H  H18  1  0.72818452  0.50000000  0.27181548  1
  H  H19  1  0.72818452  0.50000000  0.72818452  1
  H  H20  1  0.27181548  0.27181548  0.50000000  1
  H  H21  1  0.72818452  0.27181548  0.50000000  1
  H  H22  1  0.27181548  0.72818452  0.50000000  1
  H  H23  1  0.72818452  0.72818452  0.50000000  1
  He  He24  1  0.50000000  0.00000000  -0.00000000  1
  He  He25  1  0.00000000  0.50000000  -0.00000000  1
  He  He26  1  -0.00000000  -0.00000000  0.50000000  1
  Li  Li27  1  0.15494475  0.15494475  0.15494475  1
  Li  Li28  1  0.84505525  0.84505525  0.15494475  1
  Li  Li29  1  0.84505525  0.15494475  0.84505525  1
  Li  Li30  1  0.15494475  0.84505525  0.84505525  1
  Li  Li31  1  0.15494475  0.15494475  0.84505525  1
  Li  Li32  1  0.84505525  0.84505525  0.84505525  1
  Li  Li33  1  0.15494475  0.84505525  0.15494475  1
  Li  Li34  1  0.84505525  0.15494475  0.15494475  1
  Be  Be35  1  0.50000000  0.50000000  0.50000000  1
