# generated using pymatgen
data_HHe4LiBe4
_symmetry_space_group_name_H-M   'P 1'
_cell_length_a   5.84103332
_cell_length_b   7.61623378
_cell_length_c   9.42257125
_cell_angle_alpha   90.00000000
_cell_angle_beta   90.00000000
_cell_angle_gamma   90.00000000
_symmetry_Int_Tables_number   1
_chemical_formula_structural   HHe4LiBe4
_chemical_formula_sum   'H4 He16 Li4 Be16'
_cell_volume   419.17886719
_cell_formula_units_Z   4
loop_
 _symmetry_equiv_pos_site_id
 _symmetry_equiv_pos_as_xyz
  1  'x, y, z'
loop_
 _atom_site_type_symbol
 _atom_site_label
 _atom_site_symmetry_multiplicity
 _atom_site_fract_x
 _atom_site_fract_y
 _atom_site_fract_z
 _atom_site_occupancy
  H  H0  1  0.19810751  0.80250548  0.06824225  1
  H  H1  1  0.69810751  0.19749452  0.93175775  1
  H  H2  1  0.19810751  0.69749452  0.56824225  1
  H  H3  1  0.69810751  0.30250548  0.43175775  1
  He  He4  1  0.81738587  0.57720501  0.81942701  1
  He  He5  1  0.31738587  0.42279499  0.18057299  1
  He  He6  1  0.81738587  0.92279499  0.31942701  1
  He  He7  1  0.31738587  0.07720501  0.68057299  1
  He  He8  1  0.60108551  0.67083088  0.91062798  1
  He  He9  1  0.10108551  0.32916912  0.08937202  1
  He  He10  1  0.60108551  0.82916912  0.41062798  1
  He  He11  1  0.10108551  0.17083088  0.58937202  1
  He  He12  1  0.79652679  0.79786289  0.82897795  1
  He  He13  1  0.29652679  0.20213711  0.17102205  1
  He  He14  1  0.79652679  0.70213711  0.32897795  1
  He  He15  1  0.29652679  0.29786289  0.67102205  1
  He  He16  1  0.60809421  0.68643507  0.73175634  1
  He  He17  1  0.10809421  0.31356493  0.26824366  1
  He  He18  1  0.60809421  0.81356493  0.23175634  1
  He  He19  1  0.10809421  0.18643507  0.76824366  1
  Li  Li20  1  0.70660637  0.68179881  0.82267551  1
  Li  Li21  1  0.20660637  0.31820119  0.17732449  1
  Li  Li22  1  0.70660637  0.81820119  0.32267551  1
  Li  Li23  1  0.20660637  0.18179881  0.67732449  1
  Be  Be24  1  0.41476580  0.70060083  0.08089630  1
  Be  Be25  1  0.91476580  0.29939917  0.91910370  1
  Be  Be26  1  0.41476580  0.79939917  0.58089630  1
  Be  Be27  1  0.91476580  0.20060083  0.41910370  1
  Be  Be28  1  0.19334383  0.93244585  0.18233568  1
  Be  Be29  1  0.69334383  0.06755415  0.81766432  1
  Be  Be30  1  0.19334383  0.56755415  0.68233568  1
  Be  Be31  1  0.69334383  0.43244585  0.31766432  1
  Be  Be32  1  0.00617866  0.68173249  0.08350736  1
  Be  Be33  1  0.50617866  0.31826751  0.91649264  1
  Be  Be34  1  0.00617866  0.81826751  0.58350736  1
  Be  Be35  1  0.50617866  0.18173249  0.41649264  1
  Be  Be36  1  0.19020545  0.88822758  0.93069321  1
  Be  Be37  1  0.69020545  0.11177242  0.06930679  1
  Be  Be38  1  0.19020545  0.61177242  0.43069321  1
  Be  Be39  1  0.69020545  0.38822758  0.56930679  1
