# generated using pymatgen
data_H2HeLi2
_symmetry_space_group_name_H-M   'P 1'
_cell_length_a   8.25548071
_cell_length_b   8.25548071
_cell_length_c   8.25548071
_cell_angle_alpha   132.58763457
_cell_angle_beta   127.98389732
_cell_angle_gamma   73.01285876
_symmetry_Int_Tables_number   1
_chemical_formula_structural   H2HeLi2
_chemical_formula_sum   'H4 He2 Li4'
_cell_volume   318.91370986
_cell_formula_units_Z   2
loop_
 _symmetry_equiv_pos_site_id
 _symmetry_equiv_pos_as_xyz
  1  'x, y, z'
loop_
 _atom_site_type_symbol
 _atom_site_label
 _atom_site_symmetry_multiplicity
 _atom_site_fract_x
 _atom_site_fract_y
 _atom_site_fract_z
 _atom_site_occupancy
  H  H0  1  0.80678894  0.14592976  0.66085918  1
  H  H1  1  0.19321106  0.85407024  0.33914082  1
  H  H2  1  0.48507058  0.64592976  0.83914082  1
  H  H3  1  0.51492942  0.35407024  0.16085918  1
  He  He4  1  -0.00000000  0.75000000  0.75000000  1
  He  He5  1  0.00000000  0.25000000  0.25000000  1
  Li  Li6  1  0.69387885  0.89382294  0.80005591  1
  Li  Li7  1  0.30612115  0.10617706  0.19994409  1
  Li  Li8  1  0.09376704  0.39382294  0.69994409  1
  Li  Li9  1  0.90623296  0.60617706  0.30005591  1
