# generated using pymatgen
data_H2He
_symmetry_space_group_name_H-M   'P 1'
_cell_length_a   5.85234336
_cell_length_b   5.85234336
_cell_length_c   12.65130349
_cell_angle_alpha   69.07525489
_cell_angle_beta   69.07525489
_cell_angle_gamma   56.97146438
_symmetry_Int_Tables_number   1
_chemical_formula_structural   H2He
_chemical_formula_sum   'H16 He8'
_cell_volume   331.94114369
_cell_formula_units_Z   8
loop_
 _symmetry_equiv_pos_site_id
 _symmetry_equiv_pos_as_xyz
  1  'x, y, z'
loop_
 _atom_site_type_symbol
 _atom_site_label
 _atom_site_symmetry_multiplicity
 _atom_site_fract_x
 _atom_site_fract_y
 _atom_site_fract_z
 _atom_site_occupancy
  H  H0  1  0.50000000  0.00000000  0.00000000  1
  H  H1  1  -0.00000000  0.50000000  0.50000000  1
  H  H2  1  0.50000000  0.50000000  -0.00000000  1
  H  H3  1  0.50000000  0.50000000  0.50000000  1
  H  H4  1  0.59305921  0.84254465  0.25006937  1
  H  H5  1  0.15745535  0.40694079  0.24993063  1
  H  H6  1  0.40694079  0.15745535  0.74993063  1
  H  H7  1  0.84254465  0.59305921  0.75006937  1
  H  H8  1  0.42253965  0.67281266  0.15479258  1
  H  H9  1  0.32718734  0.57746035  0.34520742  1
  H  H10  1  0.57746035  0.32718734  0.84520742  1
  H  H11  1  0.67281266  0.42253965  0.65479258  1
  H  H12  1  0.96540064  0.71569780  0.06905062  1
  H  H13  1  0.28430220  0.03459936  0.43094938  1
  H  H14  1  0.03459936  0.28430220  0.93094938  1
  H  H15  1  0.71569780  0.96540064  0.56905062  1
  He  He16  1  0.62662107  0.80576782  0.11817840  1
  He  He17  1  0.19423218  0.37337893  0.38182160  1
  He  He18  1  0.37337893  0.19423218  0.88182160  1
  He  He19  1  0.80576782  0.62662107  0.61817840  1
  He  He20  1  0.25524594  0.57619125  0.11813184  1
  He  He21  1  0.42380875  0.74475406  0.38186816  1
  He  He22  1  0.74475406  0.42380875  0.88186816  1
  He  He23  1  0.57619125  0.25524594  0.61813184  1
