# generated using pymatgen
data_HHeLi
_symmetry_space_group_name_H-M   'P 1'
_cell_length_a   4.33255527
_cell_length_b   6.81664216
_cell_length_c   7.56201520
_cell_angle_alpha   90.00000000
_cell_angle_beta   90.00000000
_cell_angle_gamma   90.00000000
_symmetry_Int_Tables_number   1
_chemical_formula_structural   HHeLi
_chemical_formula_sum   'H4 He4 Li4'
_cell_volume   223.33261635
_cell_formula_units_Z   4
loop_
 _symmetry_equiv_pos_site_id
 _symmetry_equiv_pos_as_xyz
  1  'x, y, z'
loop_
 _atom_site_type_symbol
 _atom_site_label
 _atom_site_symmetry_multiplicity
 _atom_site_fract_x
 _atom_site_fract_y
 _atom_site_fract_z
 _atom_site_occupancy
  H  H0  1  0.25000000  0.32466970  0.57590598  1
  H  H1  1  0.75000000  0.17533030  0.07590598  1
  H  H2  1  0.75000000  0.67533030  0.42409402  1
  H  H3  1  0.25000000  0.82466970  0.92409402  1
  He  He4  1  0.25000000  0.98501339  0.30355992  1
  He  He5  1  0.75000000  0.51498661  0.80355992  1
  He  He6  1  0.75000000  0.01498661  0.69644008  1
  He  He7  1  0.25000000  0.48501339  0.19644008  1
  Li  Li8  1  0.25000000  0.21349824  0.89730343  1
  Li  Li9  1  0.75000000  0.28650176  0.39730343  1
  Li  Li10  1  0.75000000  0.78650176  0.10269657  1
  Li  Li11  1  0.25000000  0.71349824  0.60269657  1
