# generated using pymatgen
data_HHe12Li5Be3
_symmetry_space_group_name_H-M   'P 1'
_cell_length_a   10.47269962
_cell_length_b   10.47242884
_cell_length_c   7.29590328
_cell_angle_alpha   90.00000000
_cell_angle_beta   90.00000000
_cell_angle_gamma   120.00295595
_symmetry_Int_Tables_number   1
_chemical_formula_structural   HHe12Li5Be3
_chemical_formula_sum   'H2 He24 Li10 Be6'
_cell_volume   692.95148275
_cell_formula_units_Z   2
loop_
 _symmetry_equiv_pos_site_id
 _symmetry_equiv_pos_as_xyz
  1  'x, y, z'
loop_
 _atom_site_type_symbol
 _atom_site_label
 _atom_site_symmetry_multiplicity
 _atom_site_fract_x
 _atom_site_fract_y
 _atom_site_fract_z
 _atom_site_occupancy
  H  H0  1  0.00000000  0.00000000  0.00000000  1
  H  H1  1  -0.00000000  -0.00000000  0.50000000  1
  He  He2  1  0.33678252  0.49397003  0.25000000  1
  He  He3  1  0.50602033  0.84280686  0.25000000  1
  He  He4  1  0.15717275  0.66319979  0.25000000  1
  He  He5  1  0.66321748  0.50602997  0.75000000  1
  He  He6  1  0.49397967  0.15719314  0.75000000  1
  He  He7  1  0.84282725  0.33680021  0.75000000  1
  He  He8  1  0.60166873  0.46962028  0.25000000  1
  He  He9  1  0.53037700  0.13205471  0.25000000  1
  He  He10  1  0.86794834  0.39833450  0.25000000  1
  He  He11  1  0.39833127  0.53037972  0.75000000  1
  He  He12  1  0.46962300  0.86794529  0.75000000  1
  He  He13  1  0.13205166  0.60166550  0.75000000  1
  He  He14  1  0.35199245  0.25943272  0.06121759  1
  He  He15  1  0.74055747  0.09257406  0.06121157  1
  He  He16  1  0.90743869  0.64798701  0.06123216  1
  He  He17  1  0.64800755  0.74056728  0.56121759  1
  He  He18  1  0.25944253  0.90742594  0.56121157  1
  He  He19  1  0.09256131  0.35201299  0.56123216  1
  He  He20  1  0.64800755  0.74056728  0.93878241  1
  He  He21  1  0.25944253  0.90742594  0.93878843  1
  He  He22  1  0.09256131  0.35201299  0.93876784  1
  He  He23  1  0.35199245  0.25943272  0.43878241  1
  He  He24  1  0.74055747  0.09257406  0.43878843  1
  He  He25  1  0.90743869  0.64798701  0.43876784  1
  Li  Li26  1  0.33332783  0.66666030  0.00284251  1
  Li  Li27  1  0.66667217  0.33333970  0.50284251  1
  Li  Li28  1  0.66667217  0.33333970  0.99715749  1
  Li  Li29  1  0.33332783  0.66666030  0.49715749  1
  Li  Li30  1  0.25722766  0.00972363  0.25000000  1
  Li  Li31  1  0.99028579  0.24750132  0.25000000  1
  Li  Li32  1  0.75252092  0.74277999  0.25000000  1
  Li  Li33  1  0.74277234  0.99027637  0.75000000  1
  Li  Li34  1  0.00971421  0.75249868  0.75000000  1
  Li  Li35  1  0.24747908  0.25722001  0.75000000  1
  Be  Be36  1  0.40806740  0.37559347  0.25000000  1
  Be  Be37  1  0.62440792  0.03248579  0.25000000  1
  Be  Be38  1  0.96751688  0.59191990  0.25000000  1
  Be  Be39  1  0.59193260  0.62440653  0.75000000  1
  Be  Be40  1  0.37559208  0.96751421  0.75000000  1
  Be  Be41  1  0.03248312  0.40808010  0.75000000  1
