# generated using pymatgen
data_H2He4Li2(Be4B)3
_symmetry_space_group_name_H-M   'P 1'
_cell_length_a   13.25687137
_cell_length_b   9.99661844
_cell_length_c   9.88698293
_cell_angle_alpha   83.62747509
_cell_angle_beta   48.53942621
_cell_angle_gamma   47.83309870
_symmetry_Int_Tables_number   1
_chemical_formula_structural   H2He4Li2(Be4B)3
_chemical_formula_sum   'H4 He8 Li4 Be24 B6'
_cell_volume   582.04116067
_cell_formula_units_Z   2
loop_
 _symmetry_equiv_pos_site_id
 _symmetry_equiv_pos_as_xyz
  1  'x, y, z'
loop_
 _atom_site_type_symbol
 _atom_site_label
 _atom_site_symmetry_multiplicity
 _atom_site_fract_x
 _atom_site_fract_y
 _atom_site_fract_z
 _atom_site_occupancy
  H  H0  1  0.25343172  0.55946790  0.67093773  1
  H  H1  1  0.51616266  0.67093773  0.55946790  1
  H  H2  1  0.69053210  0.99656828  0.73383734  1
  H  H3  1  0.57906227  0.73383734  0.99656828  1
  He  He4  1  0.76471199  0.94560683  0.13497427  1
  He  He5  1  0.15470691  0.13497427  0.94560683  1
  He  He6  1  0.30439317  0.48528801  0.09529309  1
  He  He7  1  0.11502573  0.09529309  0.48528801  1
  He  He8  1  0.52282746  0.09675474  0.27770203  1
  He  He9  1  0.10271578  0.27770203  0.09675474  1
  He  He10  1  0.15324526  0.72717254  0.14728422  1
  He  He11  1  0.97229797  0.14728422  0.72717254  1
  Li  Li12  1  0.13092152  0.80532520  0.43306153  1
  Li  Li13  1  0.63069175  0.43306153  0.80532520  1
  Li  Li14  1  0.44467480  0.11907848  0.61930825  1
  Li  Li15  1  0.81693847  0.61930825  0.11907848  1
  Be  Be16  1  0.03898572  0.82307431  0.91393303  1
  Be  Be17  1  0.22400695  0.91393303  0.82307431  1
  Be  Be18  1  0.42692569  0.21101428  0.02599305  1
  Be  Be19  1  0.33606697  0.02599305  0.21101428  1
  Be  Be20  1  0.13838481  0.49955709  0.71872950  1
  Be  Be21  1  0.64332860  0.71872950  0.49955709  1
  Be  Be22  1  0.75044291  0.11161519  0.60667140  1
  Be  Be23  1  0.53127050  0.60667140  0.11161519  1
  Be  Be24  1  0.36696500  0.56414233  0.43659770  1
  Be  Be25  1  0.63229497  0.43659770  0.56414233  1
  Be  Be26  1  0.68585767  0.88303500  0.61770503  1
  Be  Be27  1  0.81340230  0.61770503  0.88303500  1
  Be  Be28  1  0.91378338  0.78145837  0.67217335  1
  Be  Be29  1  0.63258490  0.67217335  0.78145837  1
  Be  Be30  1  0.46854163  0.33621662  0.61741510  1
  Be  Be31  1  0.57782665  0.61741510  0.33621662  1
  Be  Be32  1  0.20463755  0.34254762  0.43452375  1
  Be  Be33  1  0.01829108  0.43452375  0.34254762  1
  Be  Be34  1  0.90745238  0.04536245  0.23170892  1
  Be  Be35  1  0.81547625  0.23170892  0.04536245  1
  Be  Be36  1  0.64161027  0.97750158  0.25022690  1
  Be  Be37  1  0.13066125  0.25022690  0.97750158  1
  Be  Be38  1  0.27249842  0.60838973  0.11933875  1
  Be  Be39  1  0.99977310  0.11933875  0.60838973  1
  B  B40  1  0.99995088  0.00004912  0.00004912  1
  B  B41  1  0.24995088  0.25004912  0.25004912  1
  B  B42  1  0.01248127  0.56632078  0.67993436  1
  B  B43  1  0.74126359  0.67993436  0.56632078  1
  B  B44  1  0.68367922  0.23751873  0.50873641  1
  B  B45  1  0.57006564  0.50873641  0.23751873  1
