# generated using pymatgen
data_HHeLi4Be
_symmetry_space_group_name_H-M   'P 1'
_cell_length_a   4.74529864
_cell_length_b   5.93321990
_cell_length_c   10.37551925
_cell_angle_alpha   90.00000000
_cell_angle_beta   90.00000000
_cell_angle_gamma   90.00000000
_symmetry_Int_Tables_number   1
_chemical_formula_structural   HHeLi4Be
_chemical_formula_sum   'H4 He4 Li16 Be4'
_cell_volume   292.12170998
_cell_formula_units_Z   4
loop_
 _symmetry_equiv_pos_site_id
 _symmetry_equiv_pos_as_xyz
  1  'x, y, z'
loop_
 _atom_site_type_symbol
 _atom_site_label
 _atom_site_symmetry_multiplicity
 _atom_site_fract_x
 _atom_site_fract_y
 _atom_site_fract_z
 _atom_site_occupancy
  H  H0  1  0.97958181  0.75000000  0.27763177  1
  H  H1  1  0.47958181  0.25000000  0.22236823  1
  H  H2  1  0.02041819  0.25000000  0.72236823  1
  H  H3  1  0.52041819  0.75000000  0.77763177  1
  He  He4  1  0.50000000  0.50000000  0.50000000  1
  He  He5  1  -0.00000000  0.50000000  0.00000000  1
  He  He6  1  0.50000000  -0.00000000  0.50000000  1
  He  He7  1  0.00000000  -0.00000000  0.00000000  1
  Li  Li8  1  0.74177517  0.75000000  0.09636411  1
  Li  Li9  1  0.24177517  0.25000000  0.40363589  1
  Li  Li10  1  0.25822483  0.25000000  0.90363589  1
  Li  Li11  1  0.75822483  0.75000000  0.59636411  1
  Li  Li12  1  0.20617382  0.75000000  0.45600460  1
  Li  Li13  1  0.70617382  0.25000000  0.04399540  1
  Li  Li14  1  0.79382618  0.25000000  0.54399540  1
  Li  Li15  1  0.29382618  0.75000000  0.95600460  1
  Li  Li16  1  0.28288876  0.95628071  0.16719541  1
  Li  Li17  1  0.78288876  0.04371929  0.33280459  1
  Li  Li18  1  0.71711124  0.45628071  0.83280459  1
  Li  Li19  1  0.21711124  0.54371929  0.66719541  1
  Li  Li20  1  0.71711124  0.04371929  0.83280459  1
  Li  Li21  1  0.21711124  0.95628071  0.66719541  1
  Li  Li22  1  0.28288876  0.54371929  0.16719541  1
  Li  Li23  1  0.78288876  0.45628071  0.33280459  1
  Be  Be24  1  0.41909582  0.75000000  0.09391125  1
  Be  Be25  1  0.91909582  0.25000000  0.40608875  1
  Be  Be26  1  0.58090418  0.25000000  0.90608875  1
  Be  Be27  1  0.08090418  0.75000000  0.59391125  1
