# generated using pymatgen
data_HHe4Li
_symmetry_space_group_name_H-M   'P 1'
_cell_length_a   5.54618998
_cell_length_b   7.27399596
_cell_length_c   9.02961016
_cell_angle_alpha   90.00000000
_cell_angle_beta   90.00000000
_cell_angle_gamma   90.00000000
_symmetry_Int_Tables_number   1
_chemical_formula_structural   HHe4Li
_chemical_formula_sum   'H4 He16 Li4'
_cell_volume   364.28123288
_cell_formula_units_Z   4
loop_
 _symmetry_equiv_pos_site_id
 _symmetry_equiv_pos_as_xyz
  1  'x, y, z'
loop_
 _atom_site_type_symbol
 _atom_site_label
 _atom_site_symmetry_multiplicity
 _atom_site_fract_x
 _atom_site_fract_y
 _atom_site_fract_z
 _atom_site_occupancy
  H  H0  1  0.75000000  0.84226852  0.18496597  1
  H  H1  1  0.25000000  0.34226852  0.31503403  1
  H  H2  1  0.25000000  0.15773148  0.81503403  1
  H  H3  1  0.75000000  0.65773148  0.68496597  1
  He  He4  1  0.25000000  0.94995422  0.31780825  1
  He  He5  1  0.75000000  0.44995422  0.18219175  1
  He  He6  1  0.75000000  0.05004578  0.68219175  1
  He  He7  1  0.25000000  0.55004578  0.81780825  1
  He  He8  1  0.03088883  0.68922134  0.41973417  1
  He  He9  1  0.96911117  0.18922134  0.08026583  1
  He  He10  1  0.53088883  0.31077866  0.58026583  1
  He  He11  1  0.46911117  0.81077866  0.91973417  1
  He  He12  1  0.96911117  0.31077866  0.58026583  1
  He  He13  1  0.03088883  0.81077866  0.91973417  1
  He  He14  1  0.46911117  0.68922134  0.41973417  1
  He  He15  1  0.53088883  0.18922134  0.08026583  1
  He  He16  1  0.25000000  0.89142455  0.58726582  1
  He  He17  1  0.75000000  0.39142455  0.91273418  1
  He  He18  1  0.75000000  0.10857545  0.41273418  1
  He  He19  1  0.25000000  0.60857545  0.08726582  1
  Li  Li20  1  0.25000000  0.80930327  0.43785975  1
  Li  Li21  1  0.75000000  0.30930327  0.06214025  1
  Li  Li22  1  0.75000000  0.19069673  0.56214025  1
  Li  Li23  1  0.25000000  0.69069673  0.93785975  1
