# generated using pymatgen
data_H10He7Li8
_symmetry_space_group_name_H-M   'P 1'
_cell_length_a   17.47494812
_cell_length_b   17.47494812
_cell_length_c   4.54498231
_cell_angle_alpha   90.00000000
_cell_angle_beta   90.00000000
_cell_angle_gamma   156.80629922
_symmetry_Int_Tables_number   1
_chemical_formula_structural   H10He7Li8
_chemical_formula_sum   'H10 He7 Li8'
_cell_volume   546.61903823
_cell_formula_units_Z   1
loop_
 _symmetry_equiv_pos_site_id
 _symmetry_equiv_pos_as_xyz
  1  'x, y, z'
loop_
 _atom_site_type_symbol
 _atom_site_label
 _atom_site_symmetry_multiplicity
 _atom_site_fract_x
 _atom_site_fract_y
 _atom_site_fract_z
 _atom_site_occupancy
  H  H0  1  0.60320494  0.03472690  -0.00000000  1
  H  H1  1  0.39679506  0.96527310  0.00000000  1
  H  H2  1  0.96527310  0.39679506  0.00000000  1
  H  H3  1  0.03472690  0.60320494  -0.00000000  1
  H  H4  1  0.62671183  0.37328817  0.50000000  1
  H  H5  1  0.37328817  0.62671183  0.50000000  1
  H  H6  1  0.90632561  0.09367439  -0.00000000  1
  H  H7  1  0.09367439  0.90632561  0.00000000  1
  H  H8  1  0.68285901  0.68285901  0.50000000  1
  H  H9  1  0.31714099  0.31714099  0.50000000  1
  He  He10  1  0.83978302  0.16021698  0.50000000  1
  He  He11  1  0.16021698  0.83978302  0.50000000  1
  He  He12  1  0.72097579  0.27902421  0.50000000  1
  He  He13  1  0.27902421  0.72097579  0.50000000  1
  He  He14  1  0.55826367  0.44173633  -0.00000000  1
  He  He15  1  0.44173633  0.55826367  0.00000000  1
  He  He16  1  -0.00000000  -0.00000000  0.00000000  1
  Li  Li17  1  0.73744265  0.88589903  0.50000000  1
  Li  Li18  1  0.26255735  0.11410097  0.50000000  1
  Li  Li19  1  0.11410097  0.26255735  0.50000000  1
  Li  Li20  1  0.88589903  0.73744265  0.50000000  1
  Li  Li21  1  0.54318879  0.83111861  -0.00000000  1
  Li  Li22  1  0.45681121  0.16888139  0.00000000  1
  Li  Li23  1  0.16888139  0.45681121  -0.00000000  1
  Li  Li24  1  0.83111861  0.54318879  0.00000000  1
