# generated using pymatgen
data_H3He4
_symmetry_space_group_name_H-M   'P 1'
_cell_length_a   5.35982977
_cell_length_b   5.35977727
_cell_length_c   5.42206049
_cell_angle_alpha   90.00000000
_cell_angle_beta   90.00000000
_cell_angle_gamma   120.00032403
_symmetry_Int_Tables_number   1
_chemical_formula_structural   H3He4
_chemical_formula_sum   'H3 He4'
_cell_volume   134.89358949
_cell_formula_units_Z   1
loop_
 _symmetry_equiv_pos_site_id
 _symmetry_equiv_pos_as_xyz
  1  'x, y, z'
loop_
 _atom_site_type_symbol
 _atom_site_label
 _atom_site_symmetry_multiplicity
 _atom_site_fract_x
 _atom_site_fract_y
 _atom_site_fract_z
 _atom_site_occupancy
  H  H0  1  -0.00000000  0.50000000  0.00000000  1
  H  H1  1  0.50000000  0.50000000  0.00000000  1
  H  H2  1  0.50000000  -0.00000000  0.00000000  1
  He  He3  1  -0.00000000  -0.00000000  0.25908281  1
  He  He4  1  0.00000000  -0.00000000  0.74091719  1
  He  He5  1  0.66667959  0.33335918  0.50000000  1
  He  He6  1  0.33332041  0.66664082  0.50000000  1
