# generated using pymatgen
data_H5He(LiBe4)3
_symmetry_space_group_name_H-M   'P 1'
_cell_length_a   10.67030982
_cell_length_b   10.67048459
_cell_length_c   7.85620209
_cell_angle_alpha   90.00000000
_cell_angle_beta   90.00000000
_cell_angle_gamma   120.00095001
_symmetry_Int_Tables_number   1
_chemical_formula_structural   H5He(LiBe4)3
_chemical_formula_sum   'H10 He2 Li6 Be24'
_cell_volume   774.64066746
_cell_formula_units_Z   2
loop_
 _symmetry_equiv_pos_site_id
 _symmetry_equiv_pos_as_xyz
  1  'x, y, z'
loop_
 _atom_site_type_symbol
 _atom_site_label
 _atom_site_symmetry_multiplicity
 _atom_site_fract_x
 _atom_site_fract_y
 _atom_site_fract_z
 _atom_site_occupancy
  H  H0  1  0.66666880  0.33334172  0.00167000  1
  H  H1  1  0.33333120  0.66665828  0.50167000  1
  H  H2  1  0.33333120  0.66665828  0.99833000  1
  H  H3  1  0.66666880  0.33334172  0.49833000  1
  H  H4  1  0.00897484  0.75183315  0.25000000  1
  H  H5  1  0.24817381  0.25713922  0.25000000  1
  H  H6  1  0.74284872  0.99102699  0.25000000  1
  H  H7  1  0.99102516  0.24816685  0.75000000  1
  H  H8  1  0.75182619  0.74286078  0.75000000  1
  H  H9  1  0.25715128  0.00897301  0.75000000  1
  He  He10  1  0.00000000  0.00000000  -0.00000000  1
  He  He11  1  -0.00000000  -0.00000000  0.50000000  1
  Li  Li12  1  0.40376811  0.03327936  0.25000000  1
  Li  Li13  1  0.96673662  0.37051537  0.25000000  1
  Li  Li14  1  0.62951788  0.59624981  0.25000000  1
  Li  Li15  1  0.59623189  0.96672064  0.75000000  1
  Li  Li16  1  0.03326338  0.62948463  0.75000000  1
  Li  Li17  1  0.37048212  0.40375019  0.75000000  1
  Be  Be18  1  0.32666698  0.84781778  0.25000000  1
  Be  Be19  1  0.15216414  0.47883254  0.25000000  1
  Be  Be20  1  0.52116005  0.67333763  0.25000000  1
  Be  Be21  1  0.67333302  0.15218222  0.75000000  1
  Be  Be22  1  0.84783586  0.52116746  0.75000000  1
  Be  Be23  1  0.47883995  0.32666237  0.75000000  1
  Be  Be24  1  0.59087836  0.12297847  0.25000000  1
  Be  Be25  1  0.87703657  0.46789906  0.25000000  1
  Be  Be26  1  0.53209432  0.40912605  0.25000000  1
  Be  Be27  1  0.40912164  0.87702153  0.75000000  1
  Be  Be28  1  0.12296343  0.53210094  0.75000000  1
  Be  Be29  1  0.46790568  0.59087395  0.75000000  1
  Be  Be30  1  0.35579689  0.09664265  0.07564408  1
  Be  Be31  1  0.90333966  0.25913778  0.07563034  1
  Be  Be32  1  0.74085293  0.64420958  0.07564247  1
  Be  Be33  1  0.64420311  0.90335735  0.57564408  1
  Be  Be34  1  0.09666034  0.74086222  0.57563034  1
  Be  Be35  1  0.25914707  0.35579042  0.57564247  1
  Be  Be36  1  0.64420311  0.90335735  0.92435592  1
  Be  Be37  1  0.09666034  0.74086222  0.92436966  1
  Be  Be38  1  0.25914707  0.35579042  0.92435753  1
  Be  Be39  1  0.35579689  0.09664265  0.42435592  1
  Be  Be40  1  0.90333966  0.25913778  0.42436966  1
  Be  Be41  1  0.74085293  0.64420958  0.42435753  1
