# generated using pymatgen
data_H4He3Li
_symmetry_space_group_name_H-M   'P 1'
_cell_length_a   3.76675561
_cell_length_b   9.29358280
_cell_length_c   7.79167000
_cell_angle_alpha   105.52562637
_cell_angle_beta   99.78680692
_cell_angle_gamma   88.50960303
_symmetry_Int_Tables_number   1
_chemical_formula_structural   H4He3Li
_chemical_formula_sum   'H8 He6 Li2'
_cell_volume   258.92832201
_cell_formula_units_Z   2
loop_
 _symmetry_equiv_pos_site_id
 _symmetry_equiv_pos_as_xyz
  1  'x, y, z'
loop_
 _atom_site_type_symbol
 _atom_site_label
 _atom_site_symmetry_multiplicity
 _atom_site_fract_x
 _atom_site_fract_y
 _atom_site_fract_z
 _atom_site_occupancy
  H  H0  1  0.71423047  0.70785186  0.29572951  1
  H  H1  1  0.28576953  0.29214814  0.70427049  1
  H  H2  1  0.76439742  0.55272184  0.23855605  1
  H  H3  1  0.23560258  0.44727816  0.76144395  1
  H  H4  1  0.64214712  0.77201921  0.47009793  1
  H  H5  1  0.35785288  0.22798079  0.52990207  1
  H  H6  1  0.74956433  0.79850615  0.18258367  1
  H  H7  1  0.25043567  0.20149385  0.81741633  1
  He  He8  1  0.80675561  0.42369914  0.19455213  1
  He  He9  1  0.19324439  0.57630086  0.80544787  1
  He  He10  1  0.58469882  0.82331040  0.61777358  1
  He  He11  1  0.41530118  0.17668960  0.38222642  1
  He  He12  1  0.77832729  0.87521055  0.08735291  1
  He  He13  1  0.22167271  0.12478945  0.91264709  1
  Li  Li14  1  0.82020914  0.15810839  0.15564882  1
  Li  Li15  1  0.17979086  0.84189161  0.84435118  1
