# generated using pymatgen
data_HHe3Li
_symmetry_space_group_name_H-M   'P 1'
_cell_length_a   5.73369836
_cell_length_b   5.73369836
_cell_length_c   5.73369836
_cell_angle_alpha   56.67176564
_cell_angle_beta   56.67176564
_cell_angle_gamma   56.67176564
_symmetry_Int_Tables_number   1
_chemical_formula_structural   HHe3Li
_chemical_formula_sum   'H2 He6 Li2'
_cell_volume   123.04246784
_cell_formula_units_Z   2
loop_
 _symmetry_equiv_pos_site_id
 _symmetry_equiv_pos_as_xyz
  1  'x, y, z'
loop_
 _atom_site_type_symbol
 _atom_site_label
 _atom_site_symmetry_multiplicity
 _atom_site_fract_x
 _atom_site_fract_y
 _atom_site_fract_z
 _atom_site_occupancy
  H  H0  1  0.00067626  0.00067626  0.00067626  1
  H  H1  1  0.50067626  0.50067626  0.50067626  1
  He  He2  1  0.11846114  0.37540089  0.71236124  1
  He  He3  1  0.71236124  0.11846114  0.37540089  1
  He  He4  1  0.37540089  0.71236124  0.11846114  1
  He  He5  1  0.21236124  0.87540089  0.61846114  1
  He  He6  1  0.87540089  0.61846114  0.21236124  1
  He  He7  1  0.61846114  0.21236124  0.87540089  1
  Li  Li8  1  0.28900046  0.28900046  0.28900046  1
  Li  Li9  1  0.78900046  0.78900046  0.78900046  1
