# generated using pymatgen
data_HHe4Li2
_symmetry_space_group_name_H-M   'P 1'
_cell_length_a   8.67657590
_cell_length_b   8.67657590
_cell_length_c   6.14228007
_cell_angle_alpha   90.00000000
_cell_angle_beta   90.00000000
_cell_angle_gamma   90.00000000
_symmetry_Int_Tables_number   1
_chemical_formula_structural   HHe4Li2
_chemical_formula_sum   'H4 He16 Li8'
_cell_volume   462.40908265
_cell_formula_units_Z   4
loop_
 _symmetry_equiv_pos_site_id
 _symmetry_equiv_pos_as_xyz
  1  'x, y, z'
loop_
 _atom_site_type_symbol
 _atom_site_label
 _atom_site_symmetry_multiplicity
 _atom_site_fract_x
 _atom_site_fract_y
 _atom_site_fract_z
 _atom_site_occupancy
  H  H0  1  -0.00000000  0.50000000  0.25000000  1
  H  H1  1  0.50000000  -0.00000000  0.75000000  1
  H  H2  1  0.00000000  0.50000000  0.75000000  1
  H  H3  1  0.50000000  0.00000000  0.25000000  1
  He  He4  1  0.67577251  0.17577251  0.25000000  1
  He  He5  1  0.32422749  0.82422749  0.25000000  1
  He  He6  1  0.82422749  0.67577251  0.75000000  1
  He  He7  1  0.17577251  0.32422749  0.75000000  1
  He  He8  1  0.32422749  0.82422749  0.75000000  1
  He  He9  1  0.67577251  0.17577251  0.75000000  1
  He  He10  1  0.17577251  0.32422749  0.25000000  1
  He  He11  1  0.82422749  0.67577251  0.25000000  1
  He  He12  1  0.09938494  0.64458862  -0.00000000  1
  He  He13  1  0.90061506  0.35541138  0.00000000  1
  He  He14  1  0.35541138  0.09938494  0.50000000  1
  He  He15  1  0.64458862  0.90061506  0.50000000  1
  He  He16  1  0.40061506  0.14458862  -0.00000000  1
  He  He17  1  0.59938494  0.85541138  0.00000000  1
  He  He18  1  0.14458862  0.59938494  0.50000000  1
  He  He19  1  0.85541138  0.40061506  0.50000000  1
  Li  Li20  1  0.17625021  0.16917310  -0.00000000  1
  Li  Li21  1  0.82374979  0.83082690  0.00000000  1
  Li  Li22  1  0.83082690  0.17625021  0.50000000  1
  Li  Li23  1  0.16917310  0.82374979  0.50000000  1
  Li  Li24  1  0.32374979  0.66917310  -0.00000000  1
  Li  Li25  1  0.67625021  0.33082690  0.00000000  1
  Li  Li26  1  0.66917310  0.67625021  0.50000000  1
  Li  Li27  1  0.33082690  0.32374979  0.50000000  1
