# generated using pymatgen
data_H2He
_symmetry_space_group_name_H-M   'P 1'
_cell_length_a   5.28673699
_cell_length_b   5.21583316
_cell_length_c   5.39303092
_cell_angle_alpha   80.39642680
_cell_angle_beta   90.00000000
_cell_angle_gamma   90.00000000
_symmetry_Int_Tables_number   1
_chemical_formula_structural   H2He
_chemical_formula_sum   'H8 He4'
_cell_volume   146.62731883
_cell_formula_units_Z   4
loop_
 _symmetry_equiv_pos_site_id
 _symmetry_equiv_pos_as_xyz
  1  'x, y, z'
loop_
 _atom_site_type_symbol
 _atom_site_label
 _atom_site_symmetry_multiplicity
 _atom_site_fract_x
 _atom_site_fract_y
 _atom_site_fract_z
 _atom_site_occupancy
  H  H0  1  0.33479878  0.93074101  0.34335885  1
  H  H1  1  0.83479878  0.06925899  0.15664115  1
  H  H2  1  0.66520122  0.06925899  0.65664115  1
  H  H3  1  0.16520122  0.93074101  0.84335885  1
  H  H4  1  0.75778658  0.55025555  0.47808995  1
  H  H5  1  0.25778658  0.44974445  0.02191005  1
  H  H6  1  0.24221342  0.44974445  0.52191005  1
  H  H7  1  0.74221342  0.55025555  0.97808995  1
  He  He8  1  0.04328095  0.72322226  0.20981282  1
  He  He9  1  0.54328095  0.27677774  0.29018718  1
  He  He10  1  0.95671905  0.27677774  0.79018718  1
  He  He11  1  0.45671905  0.72322226  0.70981282  1
