# generated using pymatgen
data_H2He4Li
_symmetry_space_group_name_H-M   'P 1'
_cell_length_a   6.61952367
_cell_length_b   8.65776004
_cell_length_c   11.74177685
_cell_angle_alpha   90.00000000
_cell_angle_beta   90.00000000
_cell_angle_gamma   90.00000000
_symmetry_Int_Tables_number   1
_chemical_formula_structural   H2He4Li
_chemical_formula_sum   'H8 He16 Li4'
_cell_volume   672.92413746
_cell_formula_units_Z   4
loop_
 _symmetry_equiv_pos_site_id
 _symmetry_equiv_pos_as_xyz
  1  'x, y, z'
loop_
 _atom_site_type_symbol
 _atom_site_label
 _atom_site_symmetry_multiplicity
 _atom_site_fract_x
 _atom_site_fract_y
 _atom_site_fract_z
 _atom_site_occupancy
  H  H0  1  0.25000000  0.66874806  0.58502676  1
  H  H1  1  0.75000000  0.83125194  0.08502676  1
  H  H2  1  0.75000000  0.33125194  0.41497324  1
  H  H3  1  0.25000000  0.16874806  0.91497324  1
  H  H4  1  0.25000000  0.49073692  0.20332119  1
  H  H5  1  0.75000000  0.00926308  0.70332119  1
  H  H6  1  0.75000000  0.50926308  0.79667881  1
  H  H7  1  0.25000000  0.99073692  0.29667881  1
  He  He8  1  0.25000000  0.29704855  0.43461785  1
  He  He9  1  0.75000000  0.20295145  0.93461785  1
  He  He10  1  0.75000000  0.70295145  0.56538215  1
  He  He11  1  0.25000000  0.79704855  0.06538215  1
  He  He12  1  0.25000000  0.02019153  0.58227268  1
  He  He13  1  0.75000000  0.47980847  0.08227268  1
  He  He14  1  0.75000000  0.97980847  0.41772732  1
  He  He15  1  0.25000000  0.52019153  0.91772732  1
  He  He16  1  0.47223892  0.30066809  0.64849318  1
  He  He17  1  0.52776108  0.19933191  0.14849318  1
  He  He18  1  0.97223892  0.69933191  0.35150682  1
  He  He19  1  0.02776108  0.80066809  0.85150682  1
  He  He20  1  0.52776108  0.69933191  0.35150682  1
  He  He21  1  0.47223892  0.80066809  0.85150682  1
  He  He22  1  0.02776108  0.30066809  0.64849318  1
  He  He23  1  0.97223892  0.19933191  0.14849318  1
  Li  Li24  1  0.25000000  0.22648560  0.57927888  1
  Li  Li25  1  0.75000000  0.27351440  0.07927888  1
  Li  Li26  1  0.75000000  0.77351440  0.42072112  1
  Li  Li27  1  0.25000000  0.72648560  0.92072112  1
