# generated using pymatgen
data_H6HeLi12(BeB)3
_symmetry_space_group_name_H-M   'P 1'
_cell_length_a   7.72743320
_cell_length_b   7.72743323
_cell_length_c   7.72746305
_cell_angle_alpha   96.35288937
_cell_angle_beta   96.35290966
_cell_angle_gamma   96.35173565
_symmetry_Int_Tables_number   1
_chemical_formula_structural   H6HeLi12(BeB)3
_chemical_formula_sum   'H12 He2 Li24 Be6 B6'
_cell_volume   452.24165376
_cell_formula_units_Z   2
loop_
 _symmetry_equiv_pos_site_id
 _symmetry_equiv_pos_as_xyz
  1  'x, y, z'
loop_
 _atom_site_type_symbol
 _atom_site_label
 _atom_site_symmetry_multiplicity
 _atom_site_fract_x
 _atom_site_fract_y
 _atom_site_fract_z
 _atom_site_occupancy
  H  H0  1  0.89436657  0.64862253  0.88699053  1
  H  H1  1  0.64862395  0.88698460  0.89437181  1
  H  H2  1  0.88698670  0.89436659  0.64862669  1
  H  H3  1  0.14862226  0.39436740  0.38699115  1
  H  H4  1  0.38698527  0.14862369  0.39437261  1
  H  H5  1  0.39436743  0.38698743  0.14862640  1
  H  H6  1  0.56297231  0.77935409  0.51353492  1
  H  H7  1  0.77935197  0.51353209  0.56297595  1
  H  H8  1  0.51353117  0.56297130  0.77935748  1
  H  H9  1  0.27935449  0.06297165  0.01353387  1
  H  H10  1  0.01353106  0.27935239  0.06297529  1
  H  H11  1  0.06297056  0.01353004  0.27935792  1
  He  He12  1  0.71143407  0.71143805  0.71144206  1
  He  He13  1  0.21143633  0.21143207  0.21143931  1
  Li  Li14  1  0.85450388  0.64042170  0.06786644  1
  Li  Li15  1  0.64042375  0.06785118  0.85451214  1
  Li  Li16  1  0.06786243  0.85450422  0.64042488  1
  Li  Li17  1  0.14042166  0.35450391  0.56786606  1
  Li  Li18  1  0.56785092  0.14042375  0.35451215  1
  Li  Li19  1  0.35450422  0.56786226  0.14042488  1
  Li  Li20  1  0.64115962  0.43280218  0.16019744  1
  Li  Li21  1  0.43280296  0.16019040  0.64116008  1
  Li  Li22  1  0.16019562  0.64116097  0.43280461  1
  Li  Li23  1  0.93280219  0.14115978  0.66019742  1
  Li  Li24  1  0.66019038  0.93280301  0.14116022  1
  Li  Li25  1  0.14116114  0.66019561  0.93280466  1
  Li  Li26  1  0.77521084  0.46508541  0.35251977  1
  Li  Li27  1  0.46508628  0.35251500  0.77521577  1
  Li  Li28  1  0.35251689  0.77521241  0.46508984  1
  Li  Li29  1  0.96508552  0.27521084  0.85252001  1
  Li  Li30  1  0.85251528  0.96508642  0.27521578  1
  Li  Li31  1  0.27521242  0.85251719  0.96508997  1
  Li  Li32  1  0.85297502  0.37927225  0.16364106  1
  Li  Li33  1  0.37926790  0.16363369  0.85298446  1
  Li  Li34  1  0.16363790  0.85297638  0.37927650  1
  Li  Li35  1  0.87927236  0.35297479  0.66364114  1
  Li  Li36  1  0.66363377  0.87926806  0.35298423  1
  Li  Li37  1  0.35297615  0.66363800  0.87927666  1
  Be  Be38  1  0.77116669  0.46555435  0.21593509  1
  Be  Be39  1  0.46557874  0.21593421  0.77117687  1
  Be  Be40  1  0.21593132  0.77116631  0.46555715  1
  Be  Be41  1  0.96555434  0.27116675  0.71593504  1
  Be  Be42  1  0.71593413  0.96557875  0.27117693  1
  Be  Be43  1  0.27116637  0.71593125  0.96555717  1
  B  B44  1  0.83459902  0.64086855  0.19664689  1
  B  B45  1  0.64085650  0.19666094  0.83459950  1
  B  B46  1  0.19664036  0.83459979  0.64087346  1
  B  B47  1  0.14086860  0.33459902  0.69664714  1
  B  B48  1  0.69666102  0.14085637  0.33459945  1
  B  B49  1  0.33459968  0.69664036  0.14087316  1
