# generated using pymatgen
data_H5He3
_symmetry_space_group_name_H-M   'P 1'
_cell_length_a   5.47786913
_cell_length_b   5.47786913
_cell_length_c   10.03159181
_cell_angle_alpha   90.00000000
_cell_angle_beta   90.00000000
_cell_angle_gamma   137.67447001
_symmetry_Int_Tables_number   1
_chemical_formula_structural   H5He3
_chemical_formula_sum   'H10 He6'
_cell_volume   202.68838884
_cell_formula_units_Z   2
loop_
 _symmetry_equiv_pos_site_id
 _symmetry_equiv_pos_as_xyz
  1  'x, y, z'
loop_
 _atom_site_type_symbol
 _atom_site_label
 _atom_site_symmetry_multiplicity
 _atom_site_fract_x
 _atom_site_fract_y
 _atom_site_fract_z
 _atom_site_occupancy
  H  H0  1  0.74220470  0.25779530  0.75000000  1
  H  H1  1  0.25779530  0.74220470  0.25000000  1
  H  H2  1  0.04611987  0.95388013  0.88119548  1
  H  H3  1  0.95388013  0.04611987  0.38119548  1
  H  H4  1  0.04611987  0.95388013  0.61880452  1
  H  H5  1  0.95388013  0.04611987  0.11880452  1
  H  H6  1  0.29837920  0.70162080  0.91839579  1
  H  H7  1  0.70162080  0.29837920  0.41839579  1
  H  H8  1  0.29837920  0.70162080  0.58160421  1
  H  H9  1  0.70162080  0.29837920  0.08160421  1
  He  He10  1  0.18264386  0.81735614  0.75000000  1
  He  He11  1  0.81735614  0.18264386  0.25000000  1
  He  He12  1  0.14135367  0.85864633  0.43394560  1
  He  He13  1  0.85864633  0.14135367  0.93394560  1
  He  He14  1  0.14135367  0.85864633  0.06605440  1
  He  He15  1  0.85864633  0.14135367  0.56605440  1
