# generated using pymatgen
data_H4HeLi2
_symmetry_space_group_name_H-M   'P 1'
_cell_length_a   8.24052445
_cell_length_b   8.24052445
_cell_length_c   8.24052445
_cell_angle_alpha   144.45055645
_cell_angle_beta   144.45055645
_cell_angle_gamma   51.15408165
_symmetry_Int_Tables_number   1
_chemical_formula_structural   H4HeLi2
_chemical_formula_sum   'H4 He1 Li2'
_cell_volume   188.15547027
_cell_formula_units_Z   1
loop_
 _symmetry_equiv_pos_site_id
 _symmetry_equiv_pos_as_xyz
  1  'x, y, z'
loop_
 _atom_site_type_symbol
 _atom_site_label
 _atom_site_symmetry_multiplicity
 _atom_site_fract_x
 _atom_site_fract_y
 _atom_site_fract_z
 _atom_site_occupancy
  H  H0  1  0.10634356  0.60634356  0.50000000  1
  H  H1  1  0.60634356  0.10634356  0.50000000  1
  H  H2  1  0.89365644  0.39365644  0.50000000  1
  H  H3  1  0.39365644  0.89365644  0.50000000  1
  He  He4  1  0.00000000  0.00000000  0.00000000  1
  Li  Li5  1  0.26461404  0.26461404  0.00000000  1
  Li  Li6  1  0.73538596  0.73538596  0.00000000  1
