# generated using pymatgen
data_H2HeLi
_symmetry_space_group_name_H-M   'P 1'
_cell_length_a   8.61354810
_cell_length_b   8.61354810
_cell_length_c   4.22096857
_cell_angle_alpha   90.00000000
_cell_angle_beta   90.00000000
_cell_angle_gamma   151.36089403
_symmetry_Int_Tables_number   1
_chemical_formula_structural   H2HeLi
_chemical_formula_sum   'H4 He2 Li2'
_cell_volume   150.09822416
_cell_formula_units_Z   2
loop_
 _symmetry_equiv_pos_site_id
 _symmetry_equiv_pos_as_xyz
  1  'x, y, z'
loop_
 _atom_site_type_symbol
 _atom_site_label
 _atom_site_symmetry_multiplicity
 _atom_site_fract_x
 _atom_site_fract_y
 _atom_site_fract_z
 _atom_site_occupancy
  H  H0  1  0.24976035  0.75023965  0.75000000  1
  H  H1  1  0.75023965  0.24976035  0.25000000  1
  H  H2  1  0.54370153  0.45629847  0.75000000  1
  H  H3  1  0.45629847  0.54370153  0.25000000  1
  He  He4  1  0.89307130  0.10692870  0.75000000  1
  He  He5  1  0.10692870  0.89307130  0.25000000  1
  Li  Li6  1  0.68361754  0.31638246  0.75000000  1
  Li  Li7  1  0.31638246  0.68361754  0.25000000  1
