# generated using pymatgen
data_HHeLi
_symmetry_space_group_name_H-M   'P 1'
_cell_length_a   3.93251418
_cell_length_b   6.41822931
_cell_length_c   7.09416560
_cell_angle_alpha   90.00000000
_cell_angle_beta   90.00000000
_cell_angle_gamma   90.00000000
_symmetry_Int_Tables_number   1
_chemical_formula_structural   HHeLi
_chemical_formula_sum   'H4 He4 Li4'
_cell_volume   179.05516286
_cell_formula_units_Z   4
loop_
 _symmetry_equiv_pos_site_id
 _symmetry_equiv_pos_as_xyz
  1  'x, y, z'
loop_
 _atom_site_type_symbol
 _atom_site_label
 _atom_site_symmetry_multiplicity
 _atom_site_fract_x
 _atom_site_fract_y
 _atom_site_fract_z
 _atom_site_occupancy
  H  H0  1  0.25000000  0.16014204  0.44093897  1
  H  H1  1  0.75000000  0.33985796  0.94093897  1
  H  H2  1  0.75000000  0.83985796  0.55906103  1
  H  H3  1  0.25000000  0.66014204  0.05906103  1
  He  He4  1  0.25000000  0.01921984  0.82623363  1
  He  He5  1  0.75000000  0.48078016  0.32623363  1
  He  He6  1  0.75000000  0.98078016  0.17376637  1
  He  He7  1  0.25000000  0.51921984  0.67376637  1
  Li  Li8  1  0.25000000  0.78954321  0.37359493  1
  Li  Li9  1  0.75000000  0.71045679  0.87359493  1
  Li  Li10  1  0.75000000  0.21045679  0.62640507  1
  Li  Li11  1  0.25000000  0.28954321  0.12640507  1
