# generated using pymatgen
data_H2He3Li4
_symmetry_space_group_name_H-M   'P 1'
_cell_length_a   6.26881990
_cell_length_b   10.31158201
_cell_length_c   10.18837462
_cell_angle_alpha   90.00000000
_cell_angle_beta   90.00000000
_cell_angle_gamma   90.00000000
_symmetry_Int_Tables_number   1
_chemical_formula_structural   H2He3Li4
_chemical_formula_sum   'H8 He12 Li16'
_cell_volume   658.59131415
_cell_formula_units_Z   4
loop_
 _symmetry_equiv_pos_site_id
 _symmetry_equiv_pos_as_xyz
  1  'x, y, z'
loop_
 _atom_site_type_symbol
 _atom_site_label
 _atom_site_symmetry_multiplicity
 _atom_site_fract_x
 _atom_site_fract_y
 _atom_site_fract_z
 _atom_site_occupancy
  H  H0  1  0.17309638  0.25000000  0.25000000  1
  H  H1  1  0.32690362  0.75000000  0.25000000  1
  H  H2  1  0.82690362  0.75000000  0.75000000  1
  H  H3  1  0.67309638  0.25000000  0.75000000  1
  H  H4  1  0.25000000  -0.00000000  0.26802989  1
  H  H5  1  0.25000000  0.50000000  0.23197011  1
  H  H6  1  0.75000000  -0.00000000  0.73197011  1
  H  H7  1  0.75000000  0.50000000  0.76802989  1
  He  He8  1  0.61390994  0.15482002  0.08652810  1
  He  He9  1  0.88609006  0.84517998  0.08652810  1
  He  He10  1  0.88609006  0.65482002  0.41347190  1
  He  He11  1  0.61390994  0.34517998  0.41347190  1
  He  He12  1  0.38609006  0.84517998  0.91347190  1
  He  He13  1  0.11390994  0.15482002  0.91347190  1
  He  He14  1  0.11390994  0.34517998  0.58652810  1
  He  He15  1  0.38609006  0.65482002  0.58652810  1
  He  He16  1  0.75000000  0.00000000  0.40832890  1
  He  He17  1  0.75000000  0.50000000  0.09167110  1
  He  He18  1  0.25000000  0.00000000  0.59167110  1
  He  He19  1  0.25000000  0.50000000  0.90832890  1
  Li  Li20  1  0.03497353  0.09928490  0.17242712  1
  Li  Li21  1  0.46502647  0.90071510  0.17242712  1
  Li  Li22  1  0.46502647  0.59928490  0.32757288  1
  Li  Li23  1  0.03497353  0.40071510  0.32757288  1
  Li  Li24  1  0.96502647  0.90071510  0.82757288  1
  Li  Li25  1  0.53497353  0.09928490  0.82757288  1
  Li  Li26  1  0.53497353  0.40071510  0.67242712  1
  Li  Li27  1  0.96502647  0.59928490  0.67242712  1
  Li  Li28  1  0.35651730  0.14491058  0.36591080  1
  Li  Li29  1  0.14348270  0.85508942  0.36591080  1
  Li  Li30  1  0.14348270  0.64491058  0.13408920  1
  Li  Li31  1  0.35651730  0.35508942  0.13408920  1
  Li  Li32  1  0.64348270  0.85508942  0.63408920  1
  Li  Li33  1  0.85651730  0.14491058  0.63408920  1
  Li  Li34  1  0.85651730  0.35508942  0.86591080  1
  Li  Li35  1  0.64348270  0.64491058  0.86591080  1
