# generated using pymatgen
data_HHe4
_symmetry_space_group_name_H-M   'P 1'
_cell_length_a   6.90161165
_cell_length_b   6.90161165
_cell_length_c   10.71141054
_cell_angle_alpha   66.05012456
_cell_angle_beta   66.05012456
_cell_angle_gamma   46.88376012
_symmetry_Int_Tables_number   1
_chemical_formula_structural   HHe4
_chemical_formula_sum   'H2 He8'
_cell_volume   333.99716756
_cell_formula_units_Z   2
loop_
 _symmetry_equiv_pos_site_id
 _symmetry_equiv_pos_as_xyz
  1  'x, y, z'
loop_
 _atom_site_type_symbol
 _atom_site_label
 _atom_site_symmetry_multiplicity
 _atom_site_fract_x
 _atom_site_fract_y
 _atom_site_fract_z
 _atom_site_occupancy
  H  H0  1  0.18372891  0.18372891  0.28927860  1
  H  H1  1  0.81627109  0.81627109  0.71072140  1
  He  He2  1  0.39755973  0.39755973  0.45668713  1
  He  He3  1  0.60244027  0.60244027  0.54331287  1
  He  He4  1  0.15756820  0.15756820  0.96148312  1
  He  He5  1  0.84243180  0.84243180  0.03851688  1
  He  He6  1  0.11591299  0.11591299  0.69011403  1
  He  He7  1  0.88408701  0.88408701  0.30988597  1
  He  He8  1  0.54568796  0.54568796  0.11936522  1
  He  He9  1  0.45431204  0.45431204  0.88063478  1
