# generated using pymatgen
data_H4He2Li
_symmetry_space_group_name_H-M   'P 1'
_cell_length_a   7.11411132
_cell_length_b   7.11411132
_cell_length_c   7.11411132
_cell_angle_alpha   155.34689783
_cell_angle_beta   153.69424776
_cell_angle_gamma   36.36154974
_symmetry_Int_Tables_number   1
_chemical_formula_structural   H4He2Li
_chemical_formula_sum   'H4 He2 Li1'
_cell_volume   66.46931197
_cell_formula_units_Z   1
loop_
 _symmetry_equiv_pos_site_id
 _symmetry_equiv_pos_as_xyz
  1  'x, y, z'
loop_
 _atom_site_type_symbol
 _atom_site_label
 _atom_site_symmetry_multiplicity
 _atom_site_fract_x
 _atom_site_fract_y
 _atom_site_fract_z
 _atom_site_occupancy
  H  H0  1  0.36534918  0.36534918  0.00000000  1
  H  H1  1  0.63465082  0.63465082  0.00000000  1
  H  H2  1  0.43189776  0.93189776  0.50000000  1
  H  H3  1  0.56810224  0.06810224  0.50000000  1
  He  He4  1  0.18747079  0.18747079  0.00000000  1
  He  He5  1  0.81252921  0.81252921  -0.00000000  1
  Li  Li6  1  -0.00000000  0.50000000  0.50000000  1
