# generated using pymatgen
data_H3He2Li2
_symmetry_space_group_name_H-M   'P 1'
_cell_length_a   5.47738589
_cell_length_b   5.47738589
_cell_length_c   6.61668138
_cell_angle_alpha   79.81453054
_cell_angle_beta   79.81453054
_cell_angle_gamma   43.34923465
_symmetry_Int_Tables_number   1
_chemical_formula_structural   H3He2Li2
_chemical_formula_sum   'H3 He2 Li2'
_cell_volume   133.77744235
_cell_formula_units_Z   1
loop_
 _symmetry_equiv_pos_site_id
 _symmetry_equiv_pos_as_xyz
  1  'x, y, z'
loop_
 _atom_site_type_symbol
 _atom_site_label
 _atom_site_symmetry_multiplicity
 _atom_site_fract_x
 _atom_site_fract_y
 _atom_site_fract_z
 _atom_site_occupancy
  H  H0  1  0.69460924  0.69460924  0.13329168  1
  H  H1  1  0.30539076  0.30539076  0.86670832  1
  H  H2  1  0.00000000  0.00000000  0.00000000  1
  He  He3  1  0.38037147  0.38037147  0.32238552  1
  He  He4  1  0.61962853  0.61962853  0.67761448  1
  Li  Li5  1  0.90703707  0.90703707  0.64026164  1
  Li  Li6  1  0.09296293  0.09296293  0.35973836  1
