# generated using pymatgen
data_H2He4Li
_symmetry_space_group_name_H-M   'P 1'
_cell_length_a   7.57283047
_cell_length_b   6.38855178
_cell_length_c   5.75311391
_cell_angle_alpha   76.97726415
_cell_angle_beta   55.27721886
_cell_angle_gamma   47.74551699
_symmetry_Int_Tables_number   1
_chemical_formula_structural   H2He4Li
_chemical_formula_sum   'H4 He8 Li2'
_cell_volume   163.53841606
_cell_formula_units_Z   2
loop_
 _symmetry_equiv_pos_site_id
 _symmetry_equiv_pos_as_xyz
  1  'x, y, z'
loop_
 _atom_site_type_symbol
 _atom_site_label
 _atom_site_symmetry_multiplicity
 _atom_site_fract_x
 _atom_site_fract_y
 _atom_site_fract_z
 _atom_site_occupancy
  H  H0  1  0.53296647  0.21703353  0.53296647  1
  H  H1  1  0.21703353  0.53296647  0.21703353  1
  H  H2  1  0.46703353  0.78296647  0.46703353  1
  H  H3  1  0.78296647  0.46703353  0.78296647  1
  He  He4  1  0.68104760  0.22082910  0.86384939  1
  He  He5  1  0.86384939  0.73427391  0.68104760  1
  He  He6  1  0.22082910  0.68104760  0.73427391  1
  He  He7  1  0.73427391  0.86384939  0.22082910  1
  He  He8  1  0.31895240  0.77917090  0.13615061  1
  He  He9  1  0.13615061  0.26572609  0.31895240  1
  He  He10  1  0.77917090  0.31895240  0.26572609  1
  He  He11  1  0.26572609  0.13615061  0.77917090  1
  Li  Li12  1  0.87500000  0.87500000  0.87500000  1
  Li  Li13  1  0.12500000  0.12500000  0.12500000  1
