# generated using pymatgen
data_H2He17Li3
_symmetry_space_group_name_H-M   'P 1'
_cell_length_a   6.90699992
_cell_length_b   6.90699992
_cell_length_c   6.90699992
_cell_angle_alpha   81.78877850
_cell_angle_beta   81.78877850
_cell_angle_gamma   81.78877850
_symmetry_Int_Tables_number   1
_chemical_formula_structural   H2He17Li3
_chemical_formula_sum   'H2 He17 Li3'
_cell_volume   320.25771450
_cell_formula_units_Z   1
loop_
 _symmetry_equiv_pos_site_id
 _symmetry_equiv_pos_as_xyz
  1  'x, y, z'
loop_
 _atom_site_type_symbol
 _atom_site_label
 _atom_site_symmetry_multiplicity
 _atom_site_fract_x
 _atom_site_fract_y
 _atom_site_fract_z
 _atom_site_occupancy
  H  H0  1  0.66258537  0.66258537  0.66258537  1
  H  H1  1  0.33741463  0.33741463  0.33741463  1
  He  He2  1  -0.00000000  0.50000000  0.00000000  1
  He  He3  1  0.50000000  -0.00000000  -0.00000000  1
  He  He4  1  0.00000000  0.00000000  0.50000000  1
  He  He5  1  0.72035570  -0.00000000  0.27964430  1
  He  He6  1  -0.00000000  0.27964430  0.72035570  1
  He  He7  1  0.27964430  0.72035570  0.00000000  1
  He  He8  1  0.27964430  0.00000000  0.72035570  1
  He  He9  1  0.00000000  0.72035570  0.27964430  1
  He  He10  1  0.72035570  0.27964430  -0.00000000  1
  He  He11  1  0.34792738  0.85564036  0.34792738  1
  He  He12  1  0.85564036  0.34792738  0.34792738  1
  He  He13  1  0.34792738  0.34792738  0.85564036  1
  He  He14  1  0.14435964  0.65207262  0.65207262  1
  He  He15  1  0.65207262  0.14435964  0.65207262  1
  He  He16  1  0.65207262  0.65207262  0.14435964  1
  He  He17  1  0.90438576  0.90438576  0.90438576  1
  He  He18  1  0.09561424  0.09561424  0.09561424  1
  Li  Li19  1  0.50000000  -0.00000000  0.50000000  1
  Li  Li20  1  -0.00000000  0.50000000  0.50000000  1
  Li  Li21  1  0.50000000  0.50000000  0.00000000  1
