# generated using pymatgen
data_HHe(LiBe3)2
_symmetry_space_group_name_H-M   'P 1'
_cell_length_a   9.29915487
_cell_length_b   5.26852107
_cell_length_c   10.24588417
_cell_angle_alpha   76.49726620
_cell_angle_beta   90.00000000
_cell_angle_gamma   90.00000000
_symmetry_Int_Tables_number   1
_chemical_formula_structural   HHe(LiBe3)2
_chemical_formula_sum   'H4 He4 Li8 Be24'
_cell_volume   488.09929928
_cell_formula_units_Z   4
loop_
 _symmetry_equiv_pos_site_id
 _symmetry_equiv_pos_as_xyz
  1  'x, y, z'
loop_
 _atom_site_type_symbol
 _atom_site_label
 _atom_site_symmetry_multiplicity
 _atom_site_fract_x
 _atom_site_fract_y
 _atom_site_fract_z
 _atom_site_occupancy
  H  H0  1  0.45295950  0.47229269  0.71713139  1
  H  H1  1  0.95295950  0.02770731  0.28286861  1
  H  H2  1  0.54704050  0.52770731  0.28286861  1
  H  H3  1  0.04704050  0.97229269  0.71713139  1
  He  He4  1  0.66113033  0.97066262  0.77290336  1
  He  He5  1  0.16113033  0.52933738  0.22709664  1
  He  He6  1  0.33886967  0.02933738  0.22709664  1
  He  He7  1  0.83886967  0.47066262  0.77290336  1
  Li  Li8  1  0.34992667  0.84097844  0.95158167  1
  Li  Li9  1  0.84992667  0.65902156  0.04841833  1
  Li  Li10  1  0.65007333  0.15902156  0.04841833  1
  Li  Li11  1  0.15007333  0.34097844  0.95158167  1
  Li  Li12  1  0.35125891  0.08523716  0.50751867  1
  Li  Li13  1  0.85125891  0.41476284  0.49248133  1
  Li  Li14  1  0.64874109  0.91476284  0.49248133  1
  Li  Li15  1  0.14874109  0.58523716  0.50751867  1
  Be  Be16  1  0.36244175  0.75827258  0.12819787  1
  Be  Be17  1  0.86244175  0.74172742  0.87180213  1
  Be  Be18  1  0.63755825  0.24172742  0.87180213  1
  Be  Be19  1  0.13755825  0.25827258  0.12819787  1
  Be  Be20  1  0.32151464  0.28093562  0.34005194  1
  Be  Be21  1  0.82151464  0.21906438  0.65994806  1
  Be  Be22  1  0.67848536  0.71906438  0.65994806  1
  Be  Be23  1  0.17848536  0.78093562  0.34005194  1
  Be  Be24  1  0.48921324  0.76718785  0.85348094  1
  Be  Be25  1  0.98921324  0.73281215  0.14651906  1
  Be  Be26  1  0.51078676  0.23281215  0.14651906  1
  Be  Be27  1  0.01078676  0.26718785  0.85348094  1
  Be  Be28  1  0.52322681  0.17185538  0.56784791  1
  Be  Be29  1  0.02322681  0.32814462  0.43215209  1
  Be  Be30  1  0.47677319  0.82814462  0.43215209  1
  Be  Be31  1  0.97677319  0.67185538  0.56784791  1
  Be  Be32  1  0.19301299  0.68576068  0.89652232  1
  Be  Be33  1  0.69301299  0.81423932  0.10347768  1
  Be  Be34  1  0.80698701  0.31423932  0.10347768  1
  Be  Be35  1  0.30698701  0.18576068  0.89652232  1
  Be  Be36  1  0.24965189  0.80887659  0.60113194  1
  Be  Be37  1  0.74965189  0.69112341  0.39886806  1
  Be  Be38  1  0.75034811  0.19112341  0.39886806  1
  Be  Be39  1  0.25034811  0.30887659  0.60113194  1
