# generated using pymatgen
data_H4He3Li2
_symmetry_space_group_name_H-M   'P 1'
_cell_length_a   17.79749995
_cell_length_b   7.19260789
_cell_length_c   7.32425455
_cell_angle_alpha   68.34355537
_cell_angle_beta   90.00000000
_cell_angle_gamma   90.00000000
_symmetry_Int_Tables_number   1
_chemical_formula_structural   H4He3Li2
_chemical_formula_sum   'H16 He12 Li8'
_cell_volume   871.40035971
_cell_formula_units_Z   4
loop_
 _symmetry_equiv_pos_site_id
 _symmetry_equiv_pos_as_xyz
  1  'x, y, z'
loop_
 _atom_site_type_symbol
 _atom_site_label
 _atom_site_symmetry_multiplicity
 _atom_site_fract_x
 _atom_site_fract_y
 _atom_site_fract_z
 _atom_site_occupancy
  H  H0  1  0.19661791  0.27076771  0.50569378  1
  H  H1  1  0.69661791  0.22923229  0.49430622  1
  H  H2  1  0.80338209  0.72923229  0.49430622  1
  H  H3  1  0.30338209  0.77076771  0.50569378  1
  H  H4  1  0.31286375  0.27820813  0.03700999  1
  H  H5  1  0.81286375  0.22179187  0.96299001  1
  H  H6  1  0.68713625  0.72179187  0.96299001  1
  H  H7  1  0.18713625  0.77820813  0.03700999  1
  H  H8  1  0.06136236  0.24952107  0.00742890  1
  H  H9  1  0.56136236  0.25047893  0.99257110  1
  H  H10  1  0.93863764  0.75047893  0.99257110  1
  H  H11  1  0.43863764  0.74952107  0.00742890  1
  H  H12  1  0.06796780  0.75701846  0.49972593  1
  H  H13  1  0.56796780  0.74298154  0.50027407  1
  H  H14  1  0.93203220  0.24298154  0.50027407  1
  H  H15  1  0.43203220  0.25701846  0.49972593  1
  He  He16  1  0.05945656  0.01213659  0.74512020  1
  He  He17  1  0.55945656  0.48786341  0.25487980  1
  He  He18  1  0.94054344  0.98786341  0.25487980  1
  He  He19  1  0.44054344  0.51213659  0.74512020  1
  He  He20  1  0.06007395  0.49780356  0.26144873  1
  He  He21  1  0.56007395  0.00219644  0.73855127  1
  He  He22  1  0.93992605  0.50219644  0.73855127  1
  He  He23  1  0.43992605  0.99780356  0.26144873  1
  He  He24  1  0.18389482  0.51352423  0.78190724  1
  He  He25  1  0.68389482  0.98647577  0.21809276  1
  He  He26  1  0.81610518  0.48647577  0.21809276  1
  He  He27  1  0.31610518  0.01352423  0.78190724  1
  Li  Li28  1  0.25960717  0.57952633  0.31623545  1
  Li  Li29  1  0.75960717  0.92047367  0.68376455  1
  Li  Li30  1  0.74039283  0.42047367  0.68376455  1
  Li  Li31  1  0.24039283  0.07952633  0.31623545  1
  Li  Li32  1  0.62974652  0.52962351  0.78750463  1
  Li  Li33  1  0.12974652  0.97037649  0.21249537  1
  Li  Li34  1  0.37025348  0.47037649  0.21249537  1
  Li  Li35  1  0.87025348  0.02962351  0.78750463  1
