# generated using pymatgen
data_HHe2
_symmetry_space_group_name_H-M   'P 1'
_cell_length_a   5.66388797
_cell_length_b   5.66388797
_cell_length_c   5.66388797
_cell_angle_alpha   133.14767855
_cell_angle_beta   101.46527162
_cell_angle_gamma   96.73889493
_symmetry_Int_Tables_number   1
_chemical_formula_structural   HHe2
_chemical_formula_sum   'H2 He4'
_cell_volume   121.49466611
_cell_formula_units_Z   2
loop_
 _symmetry_equiv_pos_site_id
 _symmetry_equiv_pos_as_xyz
  1  'x, y, z'
loop_
 _atom_site_type_symbol
 _atom_site_label
 _atom_site_symmetry_multiplicity
 _atom_site_fract_x
 _atom_site_fract_y
 _atom_site_fract_z
 _atom_site_occupancy
  H  H0  1  0.78038868  0.53038868  0.25000000  1
  H  H1  1  0.21961132  0.46961132  0.75000000  1
  He  He2  1  0.21006789  0.16576909  0.04429880  1
  He  He3  1  0.62147029  0.16576909  0.45570120  1
  He  He4  1  0.37852971  0.83423091  0.54429880  1
  He  He5  1  0.78993211  0.83423091  0.95570120  1
