# generated using pymatgen
data_HHeLi2Be7
_symmetry_space_group_name_H-M   'P 1'
_cell_length_a   12.46608141
_cell_length_b   9.01605308
_cell_length_c   9.72821228
_cell_angle_alpha   90.09530091
_cell_angle_beta   90.00000000
_cell_angle_gamma   90.00000000
_symmetry_Int_Tables_number   1
_chemical_formula_structural   HHeLi2Be7
_chemical_formula_sum   'H4 He4 Li8 Be28'
_cell_volume   1093.39946324
_cell_formula_units_Z   4
loop_
 _symmetry_equiv_pos_site_id
 _symmetry_equiv_pos_as_xyz
  1  'x, y, z'
loop_
 _atom_site_type_symbol
 _atom_site_label
 _atom_site_symmetry_multiplicity
 _atom_site_fract_x
 _atom_site_fract_y
 _atom_site_fract_z
 _atom_site_occupancy
  H  H0  1  0.64205738  0.89353864  0.14039825  1
  H  H1  1  0.14205738  0.60646136  0.85960175  1
  H  H2  1  0.35794262  0.10646136  0.85960175  1
  H  H3  1  0.85794262  0.39353864  0.14039825  1
  He  He4  1  0.80951218  0.63069535  0.60904535  1
  He  He5  1  0.30951218  0.86930465  0.39095465  1
  He  He6  1  0.19048782  0.36930465  0.39095465  1
  He  He7  1  0.69048782  0.13069535  0.60904535  1
  Li  Li8  1  0.60779875  0.52401807  0.27212347  1
  Li  Li9  1  0.10779875  0.97598193  0.72787653  1
  Li  Li10  1  0.39220125  0.47598193  0.72787653  1
  Li  Li11  1  0.89220125  0.02401807  0.27212347  1
  Li  Li12  1  0.53381757  0.80218427  0.82393182  1
  Li  Li13  1  0.03381757  0.69781573  0.17606818  1
  Li  Li14  1  0.46618243  0.19781573  0.17606818  1
  Li  Li15  1  0.96618243  0.30218427  0.82393182  1
  Be  Be16  1  0.55839245  0.71308337  0.36345139  1
  Be  Be17  1  0.05839245  0.78691663  0.63654861  1
  Be  Be18  1  0.44160755  0.28691663  0.63654861  1
  Be  Be19  1  0.94160755  0.21308337  0.36345139  1
  Be  Be20  1  0.78633815  0.88714428  0.36638343  1
  Be  Be21  1  0.28633815  0.61285572  0.63361657  1
  Be  Be22  1  0.21366185  0.11285572  0.63361657  1
  Be  Be23  1  0.71366185  0.38714428  0.36638343  1
  Be  Be24  1  0.68028808  0.58169271  0.09155320  1
  Be  Be25  1  0.18028808  0.91830729  0.90844680  1
  Be  Be26  1  0.31971192  0.41830729  0.90844680  1
  Be  Be27  1  0.81971192  0.08169271  0.09155320  1
  Be  Be28  1  0.54677779  0.57649007  0.75835658  1
  Be  Be29  1  0.04677779  0.92350993  0.24164342  1
  Be  Be30  1  0.45322221  0.42350993  0.24164342  1
  Be  Be31  1  0.95322221  0.07649007  0.75835658  1
  Be  Be32  1  0.96889703  0.56798819  0.32418379  1
  Be  Be33  1  0.46889703  0.93201181  0.67581621  1
  Be  Be34  1  0.03110297  0.43201181  0.67581621  1
  Be  Be35  1  0.53110297  0.06798819  0.32418379  1
  Be  Be36  1  0.94524073  0.67687102  0.00157348  1
  Be  Be37  1  0.44524073  0.82312898  0.99842652  1
  Be  Be38  1  0.05475927  0.32312898  0.99842652  1
  Be  Be39  1  0.55475927  0.17687102  0.00157348  1
  Be  Be40  1  0.69093503  0.85311270  0.85607449  1
  Be  Be41  1  0.19093503  0.64688730  0.14392551  1
  Be  Be42  1  0.30906497  0.14688730  0.14392551  1
  Be  Be43  1  0.80906497  0.35311270  0.85607449  1
