# generated using pymatgen
data_H2He6Li7
_symmetry_space_group_name_H-M   'P 1'
_cell_length_a   7.29267773
_cell_length_b   7.29267773
_cell_length_c   15.97967114
_cell_angle_alpha   80.74474639
_cell_angle_beta   80.74474639
_cell_angle_gamma   98.47575889
_symmetry_Int_Tables_number   1
_chemical_formula_structural   H2He6Li7
_chemical_formula_sum   'H4 He12 Li14'
_cell_volume   814.66643574
_cell_formula_units_Z   2
loop_
 _symmetry_equiv_pos_site_id
 _symmetry_equiv_pos_as_xyz
  1  'x, y, z'
loop_
 _atom_site_type_symbol
 _atom_site_label
 _atom_site_symmetry_multiplicity
 _atom_site_fract_x
 _atom_site_fract_y
 _atom_site_fract_z
 _atom_site_occupancy
  H  H0  1  0.07586545  0.24008754  0.13930569  1
  H  H1  1  0.75991246  0.92413455  0.36069431  1
  H  H2  1  0.92413455  0.75991246  0.86069431  1
  H  H3  1  0.24008754  0.07586545  0.63930569  1
  He  He4  1  0.50000000  0.50000000  0.00000000  1
  He  He5  1  0.50000000  0.50000000  0.50000000  1
  He  He6  1  0.02779059  0.73861413  0.07308883  1
  He  He7  1  0.26138587  0.97220941  0.42691117  1
  He  He8  1  0.97220941  0.26138587  0.92691117  1
  He  He9  1  0.73861413  0.02779059  0.57308883  1
  He  He10  1  0.58034093  0.41965907  0.25000000  1
  He  He11  1  0.41965907  0.58034093  0.75000000  1
  He  He12  1  0.04776446  0.49325936  0.35908559  1
  He  He13  1  0.50674064  0.95223554  0.14091441  1
  He  He14  1  0.95223554  0.50674064  0.64091441  1
  He  He15  1  0.49325936  0.04776446  0.85908559  1
  Li  Li16  1  0.24767130  0.50395810  0.17990289  1
  Li  Li17  1  0.49604190  0.75232870  0.32009711  1
  Li  Li18  1  0.75232870  0.49604190  0.82009711  1
  Li  Li19  1  0.50395810  0.24767130  0.67990289  1
  Li  Li20  1  0.26461444  0.12985990  0.02765024  1
  Li  Li21  1  0.87014010  0.73538556  0.47234976  1
  Li  Li22  1  0.73538556  0.87014010  0.97234976  1
  Li  Li23  1  0.12985990  0.26461444  0.52765024  1
  Li  Li24  1  0.78896755  0.31084170  0.10373421  1
  Li  Li25  1  0.68915830  0.21103245  0.39626579  1
  Li  Li26  1  0.21103245  0.68915830  0.89626579  1
  Li  Li27  1  0.31084170  0.78896755  0.60373421  1
  Li  Li28  1  0.04068779  0.95931221  0.25000000  1
  Li  Li29  1  0.95931221  0.04068779  0.75000000  1
