# generated using pymatgen
data_HHeLi3
_symmetry_space_group_name_H-M   'P 1'
_cell_length_a   5.58394393
_cell_length_b   5.58394393
_cell_length_c   5.58394393
_cell_angle_alpha   61.15881868
_cell_angle_beta   61.15881868
_cell_angle_gamma   61.15881868
_symmetry_Int_Tables_number   1
_chemical_formula_structural   HHeLi3
_chemical_formula_sum   'H2 He2 Li6'
_cell_volume   126.32428536
_cell_formula_units_Z   2
loop_
 _symmetry_equiv_pos_site_id
 _symmetry_equiv_pos_as_xyz
  1  'x, y, z'
loop_
 _atom_site_type_symbol
 _atom_site_label
 _atom_site_symmetry_multiplicity
 _atom_site_fract_x
 _atom_site_fract_y
 _atom_site_fract_z
 _atom_site_occupancy
  H  H0  1  0.75000000  0.75000000  0.75000000  1
  H  H1  1  0.25000000  0.25000000  0.25000000  1
  He  He2  1  0.00000000  -0.00000000  -0.00000000  1
  He  He3  1  0.50000000  0.50000000  0.50000000  1
  Li  Li4  1  0.75000000  0.18261672  0.31738328  1
  Li  Li5  1  0.18261672  0.31738328  0.75000000  1
  Li  Li6  1  0.31738328  0.75000000  0.18261672  1
  Li  Li7  1  0.25000000  0.81738328  0.68261672  1
  Li  Li8  1  0.81738328  0.68261672  0.25000000  1
  Li  Li9  1  0.68261672  0.25000000  0.81738328  1
