# generated using pymatgen
data_H4He2Li11
_symmetry_space_group_name_H-M   'P 1'
_cell_length_a   6.26897464
_cell_length_b   6.26897464
_cell_length_c   11.75673780
_cell_angle_alpha   80.56160471
_cell_angle_beta   80.56160471
_cell_angle_gamma   85.28464717
_symmetry_Int_Tables_number   1
_chemical_formula_structural   H4He2Li11
_chemical_formula_sum   'H8 He4 Li22'
_cell_volume   448.88827401
_cell_formula_units_Z   2
loop_
 _symmetry_equiv_pos_site_id
 _symmetry_equiv_pos_as_xyz
  1  'x, y, z'
loop_
 _atom_site_type_symbol
 _atom_site_label
 _atom_site_symmetry_multiplicity
 _atom_site_fract_x
 _atom_site_fract_y
 _atom_site_fract_z
 _atom_site_occupancy
  H  H0  1  0.04409874  0.46456504  0.16616569  1
  H  H1  1  0.53543496  0.95590126  0.33383431  1
  H  H2  1  0.95590126  0.53543496  0.83383431  1
  H  H3  1  0.46456504  0.04409874  0.66616569  1
  H  H4  1  0.00215132  0.08378407  0.38172993  1
  H  H5  1  0.91621593  0.99784868  0.11827007  1
  H  H6  1  0.99784868  0.91621593  0.61827007  1
  H  H7  1  0.08378407  0.00215132  0.88172993  1
  He  He8  1  0.73373922  0.54315397  0.53551400  1
  He  He9  1  0.45684603  0.26626078  0.96448600  1
  He  He10  1  0.26626078  0.45684603  0.46448600  1
  He  He11  1  0.54315397  0.73373922  0.03551400  1
  Li  Li12  1  0.30722214  0.47136504  0.11607894  1
  Li  Li13  1  0.52863496  0.69277786  0.38392106  1
  Li  Li14  1  0.69277786  0.52863496  0.88392106  1
  Li  Li15  1  0.47136504  0.30722214  0.61607894  1
  Li  Li16  1  0.87331496  0.69519968  0.14294221  1
  Li  Li17  1  0.30480032  0.12668504  0.35705779  1
  Li  Li18  1  0.12668504  0.30480032  0.85705779  1
  Li  Li19  1  0.69519968  0.87331496  0.64294221  1
  Li  Li20  1  0.90145812  0.30016432  0.10179000  1
  Li  Li21  1  0.69983568  0.09854188  0.39821000  1
  Li  Li22  1  0.09854188  0.69983568  0.89821000  1
  Li  Li23  1  0.30016432  0.90145812  0.60179000  1
  Li  Li24  1  0.98702845  0.38104008  0.31854821  1
  Li  Li25  1  0.61895992  0.01297155  0.18145179  1
  Li  Li26  1  0.01297155  0.61895992  0.68145179  1
  Li  Li27  1  0.38104008  0.98702845  0.81854821  1
  Li  Li28  1  0.97839794  0.18438184  0.52464736  1
  Li  Li29  1  0.81561816  0.02160206  0.97535264  1
  Li  Li30  1  0.02160206  0.81561816  0.47535264  1
  Li  Li31  1  0.18438184  0.97839794  0.02464736  1
  Li  Li32  1  0.04343998  0.95656002  0.25000000  1
  Li  Li33  1  0.95656002  0.04343998  0.75000000  1
