# generated using pymatgen
data_H3He2Li2
_symmetry_space_group_name_H-M   'P 1'
_cell_length_a   16.36837861
_cell_length_b   16.36837861
_cell_length_c   16.36837861
_cell_angle_alpha   17.21526708
_cell_angle_beta   17.21526708
_cell_angle_gamma   17.21526708
_symmetry_Int_Tables_number   1
_chemical_formula_structural   H3He2Li2
_chemical_formula_sum   'H6 He4 Li4'
_cell_volume   335.17822148
_cell_formula_units_Z   2
loop_
 _symmetry_equiv_pos_site_id
 _symmetry_equiv_pos_as_xyz
  1  'x, y, z'
loop_
 _atom_site_type_symbol
 _atom_site_label
 _atom_site_symmetry_multiplicity
 _atom_site_fract_x
 _atom_site_fract_y
 _atom_site_fract_z
 _atom_site_occupancy
  H  H0  1  0.06543672  0.06543672  0.06543672  1
  H  H1  1  0.93456328  0.93456328  0.93456328  1
  H  H2  1  0.20214480  0.20214480  0.20214480  1
  H  H3  1  0.79785520  0.79785520  0.79785520  1
  H  H4  1  0.35657783  0.35657783  0.35657783  1
  H  H5  1  0.64342217  0.64342217  0.64342217  1
  He  He6  1  0.12590991  0.12590991  0.12590991  1
  He  He7  1  0.87409009  0.87409009  0.87409009  1
  He  He8  1  0.29188581  0.29188581  0.29188581  1
  He  He9  1  0.70811419  0.70811419  0.70811419  1
  Li  Li10  1  0.42233469  0.42233469  0.42233469  1
  Li  Li11  1  0.57766531  0.57766531  0.57766531  1
  Li  Li12  1  0.50000000  0.50000000  0.50000000  1
  Li  Li13  1  0.00000000  0.00000000  0.00000000  1
