# generated using pymatgen
data_H6HeLi
_symmetry_space_group_name_H-M   'P 1'
_cell_length_a   5.43704699
_cell_length_b   5.43704699
_cell_length_c   5.43704699
_cell_angle_alpha   55.81770882
_cell_angle_beta   55.81770882
_cell_angle_gamma   55.81770882
_symmetry_Int_Tables_number   1
_chemical_formula_structural   H6HeLi
_chemical_formula_sum   'H6 He1 Li1'
_cell_volume   102.63043911
_cell_formula_units_Z   1
loop_
 _symmetry_equiv_pos_site_id
 _symmetry_equiv_pos_as_xyz
  1  'x, y, z'
loop_
 _atom_site_type_symbol
 _atom_site_label
 _atom_site_symmetry_multiplicity
 _atom_site_fract_x
 _atom_site_fract_y
 _atom_site_fract_z
 _atom_site_occupancy
  H  H0  1  0.10985600  0.37902379  0.75846991  1
  H  H1  1  0.37902379  0.75846991  0.10985600  1
  H  H2  1  0.75846991  0.10985600  0.37902379  1
  H  H3  1  0.89014400  0.62097621  0.24153009  1
  H  H4  1  0.62097621  0.24153009  0.89014400  1
  H  H5  1  0.24153009  0.89014400  0.62097621  1
  He  He6  1  0.50000000  0.50000000  0.50000000  1
  Li  Li7  1  0.00000000  -0.00000000  -0.00000000  1
