# generated using pymatgen
data_HHeLi
_symmetry_space_group_name_H-M   'P 1'
_cell_length_a   5.09731525
_cell_length_b   5.03703219
_cell_length_c   5.24229016
_cell_angle_alpha   80.28900835
_cell_angle_beta   90.00000000
_cell_angle_gamma   90.00000000
_symmetry_Int_Tables_number   1
_chemical_formula_structural   HHeLi
_chemical_formula_sum   'H4 He4 Li4'
_cell_volume   132.66895584
_cell_formula_units_Z   4
loop_
 _symmetry_equiv_pos_site_id
 _symmetry_equiv_pos_as_xyz
  1  'x, y, z'
loop_
 _atom_site_type_symbol
 _atom_site_label
 _atom_site_symmetry_multiplicity
 _atom_site_fract_x
 _atom_site_fract_y
 _atom_site_fract_z
 _atom_site_occupancy
  H  H0  1  0.75697810  0.55596436  0.48188109  1
  H  H1  1  0.25697810  0.44403564  0.01811891  1
  H  H2  1  0.24302190  0.44403564  0.51811891  1
  H  H3  1  0.74302190  0.55596436  0.98188109  1
  He  He4  1  0.32981591  0.93578445  0.34433577  1
  He  He5  1  0.82981591  0.06421555  0.15566423  1
  He  He6  1  0.67018409  0.06421555  0.65566423  1
  He  He7  1  0.17018409  0.93578445  0.84433577  1
  Li  Li8  1  0.04349968  0.70704038  0.21374925  1
  Li  Li9  1  0.54349968  0.29295962  0.28625075  1
  Li  Li10  1  0.95650032  0.29295962  0.78625075  1
  Li  Li11  1  0.45650032  0.70704038  0.71374925  1
