# generated using pymatgen
data_H2He4Li
_symmetry_space_group_name_H-M   'P 1'
_cell_length_a   5.95240233
_cell_length_b   5.95240233
_cell_length_c   5.95240233
_cell_angle_alpha   60.00000000
_cell_angle_beta   60.00000000
_cell_angle_gamma   60.00000000
_symmetry_Int_Tables_number   1
_chemical_formula_structural   H2He4Li
_chemical_formula_sum   'H4 He8 Li2'
_cell_volume   149.12890724
_cell_formula_units_Z   2
loop_
 _symmetry_equiv_pos_site_id
 _symmetry_equiv_pos_as_xyz
  1  'x, y, z'
loop_
 _atom_site_type_symbol
 _atom_site_label
 _atom_site_symmetry_multiplicity
 _atom_site_fract_x
 _atom_site_fract_y
 _atom_site_fract_z
 _atom_site_occupancy
  H  H0  1  0.50000000  0.50000000  0.50000000  1
  H  H1  1  0.50000000  -0.00000000  0.50000000  1
  H  H2  1  0.50000000  0.00000000  0.00000000  1
  H  H3  1  0.00000000  0.00000000  0.50000000  1
  He  He4  1  0.25971224  0.22086327  0.25971224  1
  He  He5  1  0.25971224  0.75971224  0.25971224  1
  He  He6  1  0.25971224  0.75971224  0.72086327  1
  He  He7  1  0.72086327  0.75971224  0.25971224  1
  He  He8  1  0.74028776  0.24028776  0.74028776  1
  He  He9  1  0.74028776  0.77913673  0.74028776  1
  He  He10  1  0.74028776  0.24028776  0.27913673  1
  He  He11  1  0.27913673  0.24028776  0.74028776  1
  Li  Li12  1  0.12500000  0.62500000  0.12500000  1
  Li  Li13  1  0.87500000  0.37500000  0.87500000  1
