# generated using pymatgen
data_HHe6Li6
_symmetry_space_group_name_H-M   'P 1'
_cell_length_a   5.28265554
_cell_length_b   5.28265554
_cell_length_c   8.54302531
_cell_angle_alpha   90.00000000
_cell_angle_beta   90.00000000
_cell_angle_gamma   119.99496776
_symmetry_Int_Tables_number   1
_chemical_formula_structural   HHe6Li6
_chemical_formula_sum   'H1 He6 Li6'
_cell_volume   206.47569256
_cell_formula_units_Z   1
loop_
 _symmetry_equiv_pos_site_id
 _symmetry_equiv_pos_as_xyz
  1  'x, y, z'
loop_
 _atom_site_type_symbol
 _atom_site_label
 _atom_site_symmetry_multiplicity
 _atom_site_fract_x
 _atom_site_fract_y
 _atom_site_fract_z
 _atom_site_occupancy
  H  H0  1  -0.00000000  -0.00000000  0.00000000  1
  He  He1  1  0.50000000  -0.00000000  0.24900101  1
  He  He2  1  -0.00000000  0.50000000  0.24900101  1
  He  He3  1  0.50000000  0.50000000  0.24899318  1
  He  He4  1  -0.00000000  0.50000000  0.75099899  1
  He  He5  1  0.50000000  0.00000000  0.75099899  1
  He  He6  1  0.50000000  0.50000000  0.75100682  1
  Li  Li7  1  0.33323345  0.66676655  0.00000000  1
  Li  Li8  1  0.66676655  0.33323345  0.00000000  1
  Li  Li9  1  0.33325357  0.66674643  0.50000000  1
  Li  Li10  1  0.66674643  0.33325357  0.50000000  1
  Li  Li11  1  -0.00000000  -0.00000000  0.34619485  1
  Li  Li12  1  0.00000000  0.00000000  0.65380515  1
