# generated using pymatgen
data_HHe2Li
_symmetry_space_group_name_H-M   'P 1'
_cell_length_a   3.68729219
_cell_length_b   6.40861980
_cell_length_c   11.48115996
_cell_angle_alpha   90.00000000
_cell_angle_beta   90.00000000
_cell_angle_gamma   90.00000000
_symmetry_Int_Tables_number   1
_chemical_formula_structural   HHe2Li
_chemical_formula_sum   'H4 He8 Li4'
_cell_volume   271.30501940
_cell_formula_units_Z   4
loop_
 _symmetry_equiv_pos_site_id
 _symmetry_equiv_pos_as_xyz
  1  'x, y, z'
loop_
 _atom_site_type_symbol
 _atom_site_label
 _atom_site_symmetry_multiplicity
 _atom_site_fract_x
 _atom_site_fract_y
 _atom_site_fract_z
 _atom_site_occupancy
  H  H0  1  0.00000000  0.93303704  0.44144377  1
  H  H1  1  0.00000000  0.06696296  0.55855623  1
  H  H2  1  0.00000000  0.43303704  0.05855623  1
  H  H3  1  0.00000000  0.56696296  0.94144377  1
  He  He4  1  0.00000000  0.73595512  0.45208897  1
  He  He5  1  0.00000000  0.26404488  0.54791103  1
  He  He6  1  0.00000000  0.23595512  0.04791103  1
  He  He7  1  0.00000000  0.76404488  0.95208897  1
  He  He8  1  0.00000000  0.03373933  0.34591452  1
  He  He9  1  0.00000000  0.96626067  0.65408548  1
  He  He10  1  0.00000000  0.53373933  0.15408548  1
  He  He11  1  -0.00000000  0.46626067  0.84591452  1
  Li  Li12  1  0.50000000  0.40594837  0.34781996  1
  Li  Li13  1  0.50000000  0.59405163  0.65218004  1
  Li  Li14  1  0.50000000  0.90594837  0.15218004  1
  Li  Li15  1  0.50000000  0.09405163  0.84781996  1
