# generated using pymatgen
data_H3He2
_symmetry_space_group_name_H-M   'P 1'
_cell_length_a   12.50262028
_cell_length_b   12.50262028
_cell_length_c   12.50262028
_cell_angle_alpha   131.64601246
_cell_angle_beta   131.64601246
_cell_angle_gamma   70.78868960
_symmetry_Int_Tables_number   1
_chemical_formula_structural   H3He2
_chemical_formula_sum   'H48 He32'
_cell_volume   1068.92555792
_cell_formula_units_Z   16
loop_
 _symmetry_equiv_pos_site_id
 _symmetry_equiv_pos_as_xyz
  1  'x, y, z'
loop_
 _atom_site_type_symbol
 _atom_site_label
 _atom_site_symmetry_multiplicity
 _atom_site_fract_x
 _atom_site_fract_y
 _atom_site_fract_z
 _atom_site_occupancy
  H  H0  1  0.45366053  0.19358126  0.52372508  1
  H  H1  1  0.16985618  0.92993545  0.97627492  1
  H  H2  1  0.19358126  0.16985618  0.73992073  1
  H  H3  1  0.92993545  0.45366053  0.76007927  1
  H  H4  1  0.33014382  0.30641874  0.76007927  1
  H  H5  1  0.04633947  0.57006455  0.73992073  1
  H  H6  1  0.57006455  0.33014382  0.52372508  1
  H  H7  1  0.30641874  0.04633947  0.97627492  1
  H  H8  1  0.54633947  0.80641874  0.47627492  1
  H  H9  1  0.83014382  0.07006455  0.02372508  1
  H  H10  1  0.80641874  0.83014382  0.26007927  1
  H  H11  1  0.07006455  0.54633947  0.23992073  1
  H  H12  1  0.66985618  0.69358126  0.23992073  1
  H  H13  1  0.95366053  0.42993545  0.26007927  1
  H  H14  1  0.42993545  0.66985618  0.47627492  1
  H  H15  1  0.69358126  0.95366053  0.02372508  1
  H  H16  1  0.43538469  0.45215784  0.75292603  1
  H  H17  1  0.19923181  0.68245866  0.74707397  1
  H  H18  1  0.45215784  0.19923181  0.01677315  1
  H  H19  1  0.68245866  0.43538469  0.48322685  1
  H  H20  1  0.30076819  0.04784216  0.48322685  1
  H  H21  1  0.06461531  0.81754134  0.01677315  1
  H  H22  1  0.81754134  0.30076819  0.75292603  1
  H  H23  1  0.04784216  0.06461531  0.74707397  1
  H  H24  1  0.56461531  0.54784216  0.24707397  1
  H  H25  1  0.80076819  0.31754134  0.25292603  1
  H  H26  1  0.54784216  0.80076819  0.98322685  1
  H  H27  1  0.31754134  0.56461531  0.51677315  1
  H  H28  1  0.69923181  0.95215784  0.51677315  1
  H  H29  1  0.93538469  0.18245866  0.98322685  1
  H  H30  1  0.18245866  0.69923181  0.24707397  1
  H  H31  1  0.95215784  0.93538469  0.25292603  1
  H  H32  1  0.18063652  0.18884011  0.25832498  1
  H  H33  1  0.43051512  0.92231154  0.24167502  1
  H  H34  1  0.18884011  0.43051512  0.00820358  1
  H  H35  1  0.92231154  0.18063652  0.49179642  1
  H  H36  1  0.06948488  0.31115989  0.49179642  1
  H  H37  1  0.31936348  0.57768846  0.00820358  1
  H  H38  1  0.57768846  0.06948488  0.25832498  1
  H  H39  1  0.31115989  0.31936348  0.24167502  1
  H  H40  1  0.81936348  0.81115989  0.74167502  1
  H  H41  1  0.56948488  0.07768846  0.75832498  1
  H  H42  1  0.81115989  0.56948488  0.99179642  1
  H  H43  1  0.07768846  0.81936348  0.50820358  1
  H  H44  1  0.93051512  0.68884011  0.50820358  1
  H  H45  1  0.68063652  0.42231154  0.99179642  1
  H  H46  1  0.42231154  0.93051512  0.74167502  1
  H  H47  1  0.68884011  0.68063652  0.75832498  1
  He  He48  1  0.62500000  0.37500000  0.25000000  1
  He  He49  1  0.37500000  0.62500000  0.75000000  1
  He  He50  1  0.87500000  0.12500000  0.75000000  1
  He  He51  1  0.12500000  0.87500000  0.25000000  1
  He  He52  1  0.37500000  0.12500000  0.25000000  1
  He  He53  1  0.12500000  0.37500000  0.75000000  1
  He  He54  1  0.62500000  0.87500000  0.75000000  1
  He  He55  1  0.87500000  0.62500000  0.25000000  1
  He  He56  1  0.00000000  0.00000000  0.00000000  1
  He  He57  1  0.50000000  0.00000000  0.50000000  1
  He  He58  1  0.00000000  0.50000000  -0.00000000  1
  He  He59  1  0.00000000  0.00000000  0.50000000  1
  He  He60  1  -0.00000000  0.50000000  0.50000000  1
  He  He61  1  0.50000000  0.50000000  0.00000000  1
  He  He62  1  0.50000000  -0.00000000  -0.00000000  1
  He  He63  1  0.50000000  0.50000000  0.50000000  1
  He  He64  1  0.25000000  0.23583968  0.98583968  1
  He  He65  1  0.75000000  0.26416032  0.51416032  1
  He  He66  1  0.23583968  0.75000000  0.98583968  1
  He  He67  1  0.26416032  0.25000000  0.51416032  1
  He  He68  1  0.75000000  0.76416032  0.01416032  1
  He  He69  1  0.25000000  0.73583968  0.48583968  1
  He  He70  1  0.76416032  0.25000000  0.01416032  1
  He  He71  1  0.73583968  0.75000000  0.48583968  1
  He  He72  1  0.63234518  0.38234518  0.76469037  1
  He  He73  1  0.11765482  0.86765482  0.73530963  1
  He  He74  1  0.38234518  0.11765482  0.75000000  1
  He  He75  1  0.86765482  0.63234518  0.75000000  1
  He  He76  1  0.36765482  0.61765482  0.23530963  1
  He  He77  1  0.88234518  0.13234518  0.26469037  1
  He  He78  1  0.61765482  0.88234518  0.25000000  1
  He  He79  1  0.13234518  0.36765482  0.25000000  1
