# generated using pymatgen
data_HHe4Li
_symmetry_space_group_name_H-M   'P 1'
_cell_length_a   7.71150400
_cell_length_b   7.71150400
_cell_length_c   5.89510338
_cell_angle_alpha   90.00000000
_cell_angle_beta   90.00000000
_cell_angle_gamma   148.32462465
_symmetry_Int_Tables_number   1
_chemical_formula_structural   HHe4Li
_chemical_formula_sum   'H2 He8 Li2'
_cell_volume   184.08420795
_cell_formula_units_Z   2
loop_
 _symmetry_equiv_pos_site_id
 _symmetry_equiv_pos_as_xyz
  1  'x, y, z'
loop_
 _atom_site_type_symbol
 _atom_site_label
 _atom_site_symmetry_multiplicity
 _atom_site_fract_x
 _atom_site_fract_y
 _atom_site_fract_z
 _atom_site_occupancy
  H  H0  1  0.14742284  0.85257716  0.04098980  1
  H  H1  1  0.85257716  0.14742284  0.54098980  1
  He  He2  1  0.47257046  0.52742954  0.68127050  1
  He  He3  1  0.52742954  0.47257046  0.18127050  1
  He  He4  1  0.30272262  0.69727738  0.80552913  1
  He  He5  1  0.69727738  0.30272262  0.30552913  1
  He  He6  1  0.33479150  0.66520850  0.27142716  1
  He  He7  1  0.66520850  0.33479150  0.77142716  1
  He  He8  1  0.91992844  0.08007156  0.99073513  1
  He  He9  1  0.08007156  0.91992844  0.49073513  1
  Li  Li10  1  0.41338528  0.58661472  0.00034828  1
  Li  Li11  1  0.58661472  0.41338528  0.50034828  1
