# generated using pymatgen
data_HHe(Li3Be)2
_symmetry_space_group_name_H-M   'P 1'
_cell_length_a   6.76210138
_cell_length_b   6.76210138
_cell_length_c   5.33297321
_cell_angle_alpha   78.68572678
_cell_angle_beta   78.68572678
_cell_angle_gamma   84.06284885
_symmetry_Int_Tables_number   1
_chemical_formula_structural   HHe(Li3Be)2
_chemical_formula_sum   'H2 He2 Li12 Be4'
_cell_volume   233.93394251
_cell_formula_units_Z   2
loop_
 _symmetry_equiv_pos_site_id
 _symmetry_equiv_pos_as_xyz
  1  'x, y, z'
loop_
 _atom_site_type_symbol
 _atom_site_label
 _atom_site_symmetry_multiplicity
 _atom_site_fract_x
 _atom_site_fract_y
 _atom_site_fract_z
 _atom_site_occupancy
  H  H0  1  0.29714772  0.70285228  0.75000000  1
  H  H1  1  0.70285228  0.29714772  0.25000000  1
  He  He2  1  0.90527247  0.09472753  0.75000000  1
  He  He3  1  0.09472753  0.90527247  0.25000000  1
  Li  Li4  1  0.20993239  0.03082385  0.84632863  1
  Li  Li5  1  0.96917615  0.79006761  0.65367137  1
  Li  Li6  1  0.79006761  0.96917615  0.15367137  1
  Li  Li7  1  0.03082385  0.20993239  0.34632863  1
  Li  Li8  1  0.61005975  0.11491123  0.67381357  1
  Li  Li9  1  0.88508877  0.38994025  0.82618643  1
  Li  Li10  1  0.38994025  0.88508877  0.32618643  1
  Li  Li11  1  0.11491123  0.61005975  0.17381357  1
  Li  Li12  1  0.36788708  0.33147086  0.99959926  1
  Li  Li13  1  0.66852914  0.63211292  0.50040074  1
  Li  Li14  1  0.63211292  0.66852914  0.00040074  1
  Li  Li15  1  0.33147086  0.36788708  0.49959926  1
  Be  Be16  1  0.37980681  0.19521475  0.76321389  1
  Be  Be17  1  0.80478525  0.62019319  0.73678611  1
  Be  Be18  1  0.62019319  0.80478525  0.23678611  1
  Be  Be19  1  0.19521475  0.37980681  0.26321389  1
