# generated using pymatgen
data_H2HeLi2
_symmetry_space_group_name_H-M   'P 1'
_cell_length_a   3.68181891
_cell_length_b   3.68167956
_cell_length_c   13.33538710
_cell_angle_alpha   90.00000000
_cell_angle_beta   90.00000000
_cell_angle_gamma   120.00125206
_symmetry_Int_Tables_number   1
_chemical_formula_structural   H2HeLi2
_chemical_formula_sum   'H4 He2 Li4'
_cell_volume   156.54499620
_cell_formula_units_Z   2
loop_
 _symmetry_equiv_pos_site_id
 _symmetry_equiv_pos_as_xyz
  1  'x, y, z'
loop_
 _atom_site_type_symbol
 _atom_site_label
 _atom_site_symmetry_multiplicity
 _atom_site_fract_x
 _atom_site_fract_y
 _atom_site_fract_z
 _atom_site_occupancy
  H  H0  1  0.66667005  0.33334010  0.06651188  1
  H  H1  1  0.33332995  0.66665990  0.56651188  1
  H  H2  1  0.33332995  0.66665990  0.93348812  1
  H  H3  1  0.66667005  0.33334010  0.43348812  1
  He  He4  1  0.99999810  0.99999620  0.25000000  1
  He  He5  1  0.00000190  0.00000380  0.75000000  1
  Li  Li6  1  0.66667126  0.33334251  0.90164370  1
  Li  Li7  1  0.33332874  0.66665749  0.40164370  1
  Li  Li8  1  0.33332874  0.66665749  0.09835630  1
  Li  Li9  1  0.66667126  0.33334251  0.59835630  1
