# generated using pymatgen
data_HHeLi3
_symmetry_space_group_name_H-M   'P 1'
_cell_length_a   4.05901225
_cell_length_b   4.05901225
_cell_length_c   4.05901225
_cell_angle_alpha   89.87648420
_cell_angle_beta   89.87648420
_cell_angle_gamma   89.87648420
_symmetry_Int_Tables_number   1
_chemical_formula_structural   HHeLi3
_chemical_formula_sum   'H1 He1 Li3'
_cell_volume   66.87411730
_cell_formula_units_Z   1
loop_
 _symmetry_equiv_pos_site_id
 _symmetry_equiv_pos_as_xyz
  1  'x, y, z'
loop_
 _atom_site_type_symbol
 _atom_site_label
 _atom_site_symmetry_multiplicity
 _atom_site_fract_x
 _atom_site_fract_y
 _atom_site_fract_z
 _atom_site_occupancy
  H  H0  1  0.01378453  0.01378453  0.01378453  1
  He  He1  1  0.50517567  0.50517567  0.50517567  1
  Li  Li2  1  0.52825407  0.52825407  0.03103166  1
  Li  Li3  1  0.03103166  0.52825407  0.52825407  1
  Li  Li4  1  0.52825407  0.03103166  0.52825407  1
