# generated using pymatgen
data_H3HeLi3
_symmetry_space_group_name_H-M   'P 1'
_cell_length_a   9.43612562
_cell_length_b   9.43388189
_cell_length_c   4.64577312
_cell_angle_alpha   90.00000000
_cell_angle_beta   90.00000000
_cell_angle_gamma   119.99557266
_symmetry_Int_Tables_number   1
_chemical_formula_structural   H3HeLi3
_chemical_formula_sum   'H6 He2 Li6'
_cell_volume   358.17242707
_cell_formula_units_Z   2
loop_
 _symmetry_equiv_pos_site_id
 _symmetry_equiv_pos_as_xyz
  1  'x, y, z'
loop_
 _atom_site_type_symbol
 _atom_site_label
 _atom_site_symmetry_multiplicity
 _atom_site_fract_x
 _atom_site_fract_y
 _atom_site_fract_z
 _atom_site_occupancy
  H  H0  1  0.13883609  0.17984592  0.25000000  1
  H  H1  1  0.82017207  0.95901373  0.25000000  1
  H  H2  1  0.04098564  0.86114317  0.25000000  1
  H  H3  1  0.86116391  0.82015408  0.75000000  1
  H  H4  1  0.17982793  0.04098627  0.75000000  1
  H  H5  1  0.95901436  0.13885683  0.75000000  1
  He  He6  1  0.33336766  0.66676893  0.25000000  1
  He  He7  1  0.66663234  0.33323107  0.75000000  1
  Li  Li8  1  0.91590236  0.29914298  0.25000000  1
  Li  Li9  1  0.70089197  0.61675854  0.25000000  1
  Li  Li10  1  0.38320727  0.08408754  0.25000000  1
  Li  Li11  1  0.08409764  0.70085702  0.75000000  1
  Li  Li12  1  0.29910803  0.38324146  0.75000000  1
  Li  Li13  1  0.61679273  0.91591246  0.75000000  1
