# generated using pymatgen
data_H6He26Li7
_symmetry_space_group_name_H-M   'P 1'
_cell_length_a   10.29295747
_cell_length_b   10.29295747
_cell_length_c   10.29295747
_cell_angle_alpha   146.56667409
_cell_angle_beta   106.50923826
_cell_angle_gamma   83.18306382
_symmetry_Int_Tables_number   1
_chemical_formula_structural   H6He26Li7
_chemical_formula_sum   'H6 He26 Li7'
_cell_volume   561.38356426
_cell_formula_units_Z   1
loop_
 _symmetry_equiv_pos_site_id
 _symmetry_equiv_pos_as_xyz
  1  'x, y, z'
loop_
 _atom_site_type_symbol
 _atom_site_label
 _atom_site_symmetry_multiplicity
 _atom_site_fract_x
 _atom_site_fract_y
 _atom_site_fract_z
 _atom_site_occupancy
  H  H0  1  0.08921300  0.35089247  0.73832054  1
  H  H1  1  0.61257193  0.35089247  0.26167946  1
  H  H2  1  0.38742807  0.64910753  0.73832054  1
  H  H3  1  0.91078700  0.64910753  0.26167946  1
  H  H4  1  0.35264132  0.85264132  0.50000000  1
  H  H5  1  0.64735868  0.14735868  0.50000000  1
  He  He6  1  0.12856385  0.01041699  0.65487625  1
  He  He7  1  0.35554074  0.47368760  0.34512375  1
  He  He8  1  0.64445926  0.98958301  0.11814686  1
  He  He9  1  0.87143615  0.52631240  0.88185314  1
  He  He10  1  0.87143615  0.98958301  0.34512375  1
  He  He11  1  0.64445926  0.52631240  0.65487625  1
  He  He12  1  0.35554074  0.01041699  0.88185314  1
  He  He13  1  0.12856385  0.47368760  0.11814686  1
  He  He14  1  0.61190308  0.74903374  0.36093682  1
  He  He15  1  0.38809692  0.25096626  0.63906318  1
  He  He16  1  0.61190308  0.25096626  0.86286933  1
  He  He17  1  0.38809692  0.74903374  0.13713067  1
  He  He18  1  0.83660052  0.74444921  0.58104974  1
  He  He19  1  0.16339948  0.25555079  0.41895026  1
  He  He20  1  0.83660052  0.25555079  0.09215131  1
  He  He21  1  0.16339948  0.74444921  0.90784869  1
  He  He22  1  0.84354636  0.12591841  0.71762794  1
  He  He23  1  0.40829047  0.12591841  0.28237206  1
  He  He24  1  0.59170953  0.87408159  0.71762794  1
  He  He25  1  0.15645364  0.87408159  0.28237206  1
  He  He26  1  0.08747449  0.58747449  0.50000000  1
  He  He27  1  0.91252551  0.41252551  0.50000000  1
  He  He28  1  0.08898396  0.08898396  0.00000000  1
  He  He29  1  0.91101604  0.91101604  0.00000000  1
  He  He30  1  0.37051214  0.37051214  0.00000000  1
  He  He31  1  0.62948786  0.62948786  -0.00000000  1
  Li  Li32  1  0.22022511  0.22022511  0.00000000  1
  Li  Li33  1  0.77977489  0.77977489  -0.00000000  1
  Li  Li34  1  0.73135228  0.00000000  0.73135228  1
  Li  Li35  1  0.26864772  -0.00000000  0.26864772  1
  Li  Li36  1  0.00000000  0.74740701  0.74740701  1
  Li  Li37  1  0.00000000  0.25259299  0.25259299  1
  Li  Li38  1  0.50000000  0.50000000  -0.00000000  1
