# generated using pymatgen
data_H2He
_symmetry_space_group_name_H-M   'P 1'
_cell_length_a   5.25540484
_cell_length_b   5.25540484
_cell_length_c   8.52044502
_cell_angle_alpha   90.00000000
_cell_angle_beta   90.00000000
_cell_angle_gamma   120.47170691
_symmetry_Int_Tables_number   1
_chemical_formula_structural   H2He
_chemical_formula_sum   'H8 He4'
_cell_volume   202.82490176
_cell_formula_units_Z   4
loop_
 _symmetry_equiv_pos_site_id
 _symmetry_equiv_pos_as_xyz
  1  'x, y, z'
loop_
 _atom_site_type_symbol
 _atom_site_label
 _atom_site_symmetry_multiplicity
 _atom_site_fract_x
 _atom_site_fract_y
 _atom_site_fract_z
 _atom_site_occupancy
  H  H0  1  0.66863899  0.33136101  0.50000000  1
  H  H1  1  0.33136101  0.66863899  0.00000000  1
  H  H2  1  0.44044211  0.44044211  0.25000000  1
  H  H3  1  0.55955789  0.55955789  0.75000000  1
  H  H4  1  0.43154347  0.93619864  0.27601373  1
  H  H5  1  0.56845653  0.06380136  0.77601373  1
  H  H6  1  0.93619864  0.43154347  0.22398627  1
  H  H7  1  0.06380136  0.56845653  0.72398627  1
  He  He8  1  0.28672316  0.62070627  0.18747968  1
  He  He9  1  0.71327684  0.37929373  0.68747968  1
  He  He10  1  0.62070627  0.28672316  0.31252032  1
  He  He11  1  0.37929373  0.71327684  0.81252032  1
