# generated using pymatgen
data_HHeLi3Be
_symmetry_space_group_name_H-M   'P 1'
_cell_length_a   6.49952724
_cell_length_b   6.49952724
_cell_length_c   5.71872610
_cell_angle_alpha   90.00000000
_cell_angle_beta   90.00000000
_cell_angle_gamma   123.98817934
_symmetry_Int_Tables_number   1
_chemical_formula_structural   HHeLi3Be
_chemical_formula_sum   'H2 He2 Li6 Be2'
_cell_volume   200.30761918
_cell_formula_units_Z   2
loop_
 _symmetry_equiv_pos_site_id
 _symmetry_equiv_pos_as_xyz
  1  'x, y, z'
loop_
 _atom_site_type_symbol
 _atom_site_label
 _atom_site_symmetry_multiplicity
 _atom_site_fract_x
 _atom_site_fract_y
 _atom_site_fract_z
 _atom_site_occupancy
  H  H0  1  0.26798705  0.73201295  0.25000000  1
  H  H1  1  0.73201295  0.26798705  0.75000000  1
  He  He2  1  0.57421579  0.42578421  0.25000000  1
  He  He3  1  0.42578421  0.57421579  0.75000000  1
  Li  Li4  1  0.79380221  0.20619779  0.25000000  1
  Li  Li5  1  0.20619779  0.79380221  0.75000000  1
  Li  Li6  1  0.78857035  0.78857035  -0.00000000  1
  Li  Li7  1  0.21142965  0.21142965  0.50000000  1
  Li  Li8  1  0.21142965  0.21142965  0.00000000  1
  Li  Li9  1  0.78857035  0.78857035  0.50000000  1
  Be  Be10  1  0.95085758  0.04914242  0.25000000  1
  Be  Be11  1  0.04914242  0.95085758  0.75000000  1
