# generated using pymatgen
data_H12He6Li12Be3B2
_symmetry_space_group_name_H-M   'P 1'
_cell_length_a   8.66099427
_cell_length_b   11.73503761
_cell_length_c   8.50630818
_cell_angle_alpha   70.26830769
_cell_angle_beta   66.28618354
_cell_angle_gamma   80.28163614
_symmetry_Int_Tables_number   1
_chemical_formula_structural   H12He6Li12Be3B2
_chemical_formula_sum   'H12 He6 Li12 Be3 B2'
_cell_volume   744.53366998
_cell_formula_units_Z   1
loop_
 _symmetry_equiv_pos_site_id
 _symmetry_equiv_pos_as_xyz
  1  'x, y, z'
loop_
 _atom_site_type_symbol
 _atom_site_label
 _atom_site_symmetry_multiplicity
 _atom_site_fract_x
 _atom_site_fract_y
 _atom_site_fract_z
 _atom_site_occupancy
  H  H0  1  0.10298523  0.17970040  0.59876275  1
  H  H1  1  0.89701477  0.82029960  0.40123725  1
  H  H2  1  0.38088629  0.32470960  0.41742356  1
  H  H3  1  0.61911371  0.67529040  0.58257644  1
  H  H4  1  0.28489628  0.41595525  0.12052543  1
  H  H5  1  0.71510372  0.58404475  0.87947457  1
  H  H6  1  0.00624579  0.27664081  0.30123969  1
  H  H7  1  0.99375421  0.72335919  0.69876031  1
  H  H8  1  0.05866233  0.43511299  0.71347312  1
  H  H9  1  0.94133767  0.56488701  0.28652688  1
  H  H10  1  0.20239035  0.59581086  0.37632070  1
  H  H11  1  0.79760965  0.40418914  0.62367930  1
  He  He12  1  0.62075378  0.15458759  0.13650510  1
  He  He13  1  0.37924622  0.84541241  0.86349490  1
  He  He14  1  0.31714226  0.13886378  0.00418685  1
  He  He15  1  0.68285774  0.86113622  0.99581315  1
  He  He16  1  0.31725183  0.96311649  0.39696448  1
  He  He17  1  0.68274817  0.03688351  0.60303552  1
  Li  Li18  1  0.04920710  0.11103092  0.73982041  1
  Li  Li19  1  0.95079290  0.88896908  0.26017959  1
  Li  Li20  1  0.48859954  0.34226965  0.45250526  1
  Li  Li21  1  0.51140046  0.65773035  0.54749474  1
  Li  Li22  1  0.33527893  0.48617624  0.97979488  1
  Li  Li23  1  0.66472107  0.51382376  0.02020512  1
  Li  Li24  1  0.89537407  0.26761723  0.26427426  1
  Li  Li25  1  0.10462593  0.73238277  0.73572574  1
  Li  Li26  1  0.09297914  0.39807331  0.84058212  1
  Li  Li27  1  0.90702086  0.60192669  0.15941788  1
  Li  Li28  1  0.32315269  0.65144934  0.30377720  1
  Li  Li29  1  0.67684731  0.34855066  0.69622280  1
  Be  Be30  1  0.19711979  0.29616997  0.35754151  1
  Be  Be31  1  0.80288021  0.70383003  0.64245849  1
  Be  Be32  1  -0.00000000  0.50000000  0.50000000  1
  B  B33  1  0.36164071  0.13927662  0.22624657  1
  B  B34  1  0.63835929  0.86072338  0.77375343  1
