# generated using pymatgen
data_H3He2LiBe5
_symmetry_space_group_name_H-M   'P 1'
_cell_length_a   7.52804119
_cell_length_b   7.52804119
_cell_length_c   16.94844924
_cell_angle_alpha   90.00000000
_cell_angle_beta   90.00000000
_cell_angle_gamma   148.29302739
_symmetry_Int_Tables_number   1
_chemical_formula_structural   H3He2LiBe5
_chemical_formula_sum   'H6 He4 Li2 Be10'
_cell_volume   504.81098116
_cell_formula_units_Z   2
loop_
 _symmetry_equiv_pos_site_id
 _symmetry_equiv_pos_as_xyz
  1  'x, y, z'
loop_
 _atom_site_type_symbol
 _atom_site_label
 _atom_site_symmetry_multiplicity
 _atom_site_fract_x
 _atom_site_fract_y
 _atom_site_fract_z
 _atom_site_occupancy
  H  H0  1  0.34071450  0.65928550  0.25000000  1
  H  H1  1  0.65928550  0.34071450  0.75000000  1
  H  H2  1  0.58331738  0.41668262  0.46952172  1
  H  H3  1  0.41668262  0.58331738  0.96952172  1
  H  H4  1  0.58331738  0.41668262  0.03047828  1
  H  H5  1  0.41668262  0.58331738  0.53047828  1
  He  He6  1  0.80762239  0.19237761  0.40654565  1
  He  He7  1  0.19237761  0.80762239  0.90654565  1
  He  He8  1  0.80762239  0.19237761  0.09345435  1
  He  He9  1  0.19237761  0.80762239  0.59345435  1
  Li  Li10  1  0.93758430  0.06241570  0.75000000  1
  Li  Li11  1  0.06241570  0.93758430  0.25000000  1
  Be  Be12  1  0.43974831  0.56025169  0.38125275  1
  Be  Be13  1  0.56025169  0.43974831  0.88125275  1
  Be  Be14  1  0.43974831  0.56025169  0.11874725  1
  Be  Be15  1  0.56025169  0.43974831  0.61874725  1
  Be  Be16  1  0.74931016  0.25068984  0.25000000  1
  Be  Be17  1  0.25068984  0.74931016  0.75000000  1
  Be  Be18  1  0.83271589  0.16728411  0.57158507  1
  Be  Be19  1  0.16728411  0.83271589  0.07158507  1
  Be  Be20  1  0.83271589  0.16728411  0.92841493  1
  Be  Be21  1  0.16728411  0.83271589  0.42841493  1
