# generated using pymatgen
data_H3He4
_symmetry_space_group_name_H-M   'P 1'
_cell_length_a   6.45052727
_cell_length_b   6.45051252
_cell_length_c   2.42314986
_cell_angle_alpha   90.00000000
_cell_angle_beta   90.00000000
_cell_angle_gamma   119.99959288
_symmetry_Int_Tables_number   1
_chemical_formula_structural   H3He4
_chemical_formula_sum   'H6 He8'
_cell_volume   87.31766748
_cell_formula_units_Z   2
loop_
 _symmetry_equiv_pos_site_id
 _symmetry_equiv_pos_as_xyz
  1  'x, y, z'
loop_
 _atom_site_type_symbol
 _atom_site_label
 _atom_site_symmetry_multiplicity
 _atom_site_fract_x
 _atom_site_fract_y
 _atom_site_fract_z
 _atom_site_occupancy
  H  H0  1  0.17818348  0.77309981  0.25000000  1
  H  H1  1  0.22691215  0.40509058  0.25000000  1
  H  H2  1  0.59490071  0.82179359  0.25000000  1
  H  H3  1  0.82181652  0.22690019  0.75000000  1
  H  H4  1  0.77308785  0.59490942  0.75000000  1
  H  H5  1  0.40509929  0.17820641  0.75000000  1
  He  He6  1  0.32980246  0.03308884  0.25000000  1
  He  He7  1  0.96687425  0.29669014  0.25000000  1
  He  He8  1  0.70329627  0.67017178  0.25000000  1
  He  He9  1  0.67019754  0.96691116  0.75000000  1
  He  He10  1  0.03312575  0.70330986  0.75000000  1
  He  He11  1  0.29670373  0.32982822  0.75000000  1
  He  He12  1  0.33332768  0.66667265  0.25000000  1
  He  He13  1  0.66667232  0.33332735  0.75000000  1
