# generated using pymatgen
data_H4He3Li4
_symmetry_space_group_name_H-M   'P 1'
_cell_length_a   7.50563892
_cell_length_b   7.50563892
_cell_length_c   7.50563892
_cell_angle_alpha   149.73887787
_cell_angle_beta   129.81731606
_cell_angle_gamma   59.72972945
_symmetry_Int_Tables_number   1
_chemical_formula_structural   H4He3Li4
_chemical_formula_sum   'H4 He3 Li4'
_cell_volume   162.34772729
_cell_formula_units_Z   1
loop_
 _symmetry_equiv_pos_site_id
 _symmetry_equiv_pos_as_xyz
  1  'x, y, z'
loop_
 _atom_site_type_symbol
 _atom_site_label
 _atom_site_symmetry_multiplicity
 _atom_site_fract_x
 _atom_site_fract_y
 _atom_site_fract_z
 _atom_site_occupancy
  H  H0  1  0.86346516  0.67030416  0.19316100  1
  H  H1  1  0.13653484  0.32969584  0.80683900  1
  H  H2  1  0.52285684  0.32969584  0.19316100  1
  H  H3  1  0.47714316  0.67030416  0.80683900  1
  He  He4  1  0.50000000  -0.00000000  0.50000000  1
  He  He5  1  0.87601876  0.87601876  0.00000000  1
  He  He6  1  0.12398124  0.12398124  -0.00000000  1
  Li  Li7  1  0.28430451  0.78430451  0.50000000  1
  Li  Li8  1  0.71569549  0.21569549  0.50000000  1
  Li  Li9  1  0.19199425  0.50000000  0.69199425  1
  Li  Li10  1  0.80800575  0.50000000  0.30800575  1
