# generated using pymatgen
data_HHe
_symmetry_space_group_name_H-M   'P 1'
_cell_length_a   3.82046260
_cell_length_b   8.68216440
_cell_length_c   8.99417742
_cell_angle_alpha   90.00000000
_cell_angle_beta   90.00000000
_cell_angle_gamma   90.00000000
_symmetry_Int_Tables_number   1
_chemical_formula_structural   HHe
_chemical_formula_sum   'H16 He16'
_cell_volume   298.33582500
_cell_formula_units_Z   16
loop_
 _symmetry_equiv_pos_site_id
 _symmetry_equiv_pos_as_xyz
  1  'x, y, z'
loop_
 _atom_site_type_symbol
 _atom_site_label
 _atom_site_symmetry_multiplicity
 _atom_site_fract_x
 _atom_site_fract_y
 _atom_site_fract_z
 _atom_site_occupancy
  H  H0  1  0.29333249  0.66211671  0.29180499  1
  H  H1  1  0.70666751  0.16211671  0.20819501  1
  H  H2  1  0.29333249  0.83788329  0.20819501  1
  H  H3  1  0.70666751  0.33788329  0.29180499  1
  H  H4  1  0.70666751  0.33788329  0.70819501  1
  H  H5  1  0.29333249  0.83788329  0.79180499  1
  H  H6  1  0.70666751  0.16211671  0.79180499  1
  H  H7  1  0.29333249  0.66211671  0.70819501  1
  H  H8  1  0.60870673  0.79402426  0.33505931  1
  H  H9  1  0.39129327  0.29402426  0.16494069  1
  H  H10  1  0.60870673  0.70597574  0.16494069  1
  H  H11  1  0.39129327  0.20597574  0.33505931  1
  H  H12  1  0.39129327  0.20597574  0.66494069  1
  H  H13  1  0.60870673  0.70597574  0.83505931  1
  H  H14  1  0.39129327  0.29402426  0.83505931  1
  H  H15  1  0.60870673  0.79402426  0.66494069  1
  He  He16  1  0.00000000  0.00000000  0.00000000  1
  He  He17  1  0.00000000  0.50000000  0.50000000  1
  He  He18  1  0.00000000  0.00000000  0.13193174  1
  He  He19  1  0.00000000  0.50000000  0.36806826  1
  He  He20  1  0.00000000  0.00000000  0.86806826  1
  He  He21  1  0.00000000  0.50000000  0.63193174  1
  He  He22  1  0.00000000  0.00000000  0.50000000  1
  He  He23  1  0.00000000  0.50000000  0.00000000  1
  He  He24  1  0.88238289  0.87360865  0.50000000  1
  He  He25  1  0.11761711  0.37360865  0.00000000  1
  He  He26  1  0.88238289  0.62639135  -0.00000000  1
  He  He27  1  0.11761711  0.12639135  0.50000000  1
  He  He28  1  0.45184389  0.75000000  0.25000000  1
  He  He29  1  0.54815611  0.25000000  0.25000000  1
  He  He30  1  0.54815611  0.25000000  0.75000000  1
  He  He31  1  0.45184389  0.75000000  0.75000000  1
