# generated using pymatgen
data_H5He2Li4
_symmetry_space_group_name_H-M   'P 1'
_cell_length_a   3.67134096
_cell_length_b   3.75942102
_cell_length_c   11.93785838
_cell_angle_alpha   90.00000000
_cell_angle_beta   90.00000000
_cell_angle_gamma   90.00000000
_symmetry_Int_Tables_number   1
_chemical_formula_structural   H5He2Li4
_chemical_formula_sum   'H5 He2 Li4'
_cell_volume   164.76771041
_cell_formula_units_Z   1
loop_
 _symmetry_equiv_pos_site_id
 _symmetry_equiv_pos_as_xyz
  1  'x, y, z'
loop_
 _atom_site_type_symbol
 _atom_site_label
 _atom_site_symmetry_multiplicity
 _atom_site_fract_x
 _atom_site_fract_y
 _atom_site_fract_z
 _atom_site_occupancy
  H  H0  1  0.00000000  -0.00010114  0.24515005  1
  H  H1  1  0.00000000  -0.00010114  0.75484995  1
  H  H2  1  0.00000000  0.20100240  0.33688863  1
  H  H3  1  0.00000000  0.20100240  0.66311137  1
  H  H4  1  0.50000000  0.48041362  0.00000000  1
  He  He5  1  -0.00000000  0.68919706  0.38211392  1
  He  He6  1  -0.00000000  0.68919706  0.61788608  1
  Li  Li7  1  0.50000000  0.52214628  0.20338980  1
  Li  Li8  1  0.50000000  0.52214628  0.79661020  1
  Li  Li9  1  0.50000000  0.20070765  0.50000000  1
  Li  Li10  1  0.00000000  0.99588952  0.00000000  1
