# generated using pymatgen
data_H2He2Li
_symmetry_space_group_name_H-M   'P 1'
_cell_length_a   3.79077492
_cell_length_b   3.79077307
_cell_length_c   6.58761203
_cell_angle_alpha   90.00482108
_cell_angle_beta   89.99517839
_cell_angle_gamma   119.99718295
_symmetry_Int_Tables_number   1
_chemical_formula_structural   H2He2Li
_chemical_formula_sum   'H2 He2 Li1'
_cell_volume   81.98355682
_cell_formula_units_Z   1
loop_
 _symmetry_equiv_pos_site_id
 _symmetry_equiv_pos_as_xyz
  1  'x, y, z'
loop_
 _atom_site_type_symbol
 _atom_site_label
 _atom_site_symmetry_multiplicity
 _atom_site_fract_x
 _atom_site_fract_y
 _atom_site_fract_z
 _atom_site_occupancy
  H  H0  1  0.33332772  0.66667230  0.28262689  1
  H  H1  1  0.66667228  0.33332770  0.71737311  1
  He  He2  1  0.33332979  0.66666999  0.62977563  1
  He  He3  1  0.66667021  0.33333001  0.37022437  1
  Li  Li4  1  -0.00000000  -0.00000000  -0.00000000  1
