# generated using pymatgen
data_H9He11
_symmetry_space_group_name_H-M   'P 1'
_cell_length_a   8.96855720
_cell_length_b   8.96855720
_cell_length_c   11.41649968
_cell_angle_alpha   90.00000000
_cell_angle_beta   90.00000000
_cell_angle_gamma   95.65291221
_symmetry_Int_Tables_number   1
_chemical_formula_structural   H9He11
_chemical_formula_sum   'H18 He22'
_cell_volume   913.82060370
_cell_formula_units_Z   2
loop_
 _symmetry_equiv_pos_site_id
 _symmetry_equiv_pos_as_xyz
  1  'x, y, z'
loop_
 _atom_site_type_symbol
 _atom_site_label
 _atom_site_symmetry_multiplicity
 _atom_site_fract_x
 _atom_site_fract_y
 _atom_site_fract_z
 _atom_site_occupancy
  H  H0  1  0.82276527  0.17723473  0.12935709  1
  H  H1  1  0.17723473  0.82276527  0.62935709  1
  H  H2  1  0.82276527  0.17723473  0.37064291  1
  H  H3  1  0.17723473  0.82276527  0.87064291  1
  H  H4  1  0.64885550  0.35114450  0.25000000  1
  H  H5  1  0.35114450  0.64885550  0.75000000  1
  H  H6  1  0.68969714  0.93220861  0.25000000  1
  H  H7  1  0.31030286  0.06779139  0.75000000  1
  H  H8  1  0.06779139  0.31030286  0.25000000  1
  H  H9  1  0.93220861  0.68969714  0.75000000  1
  H  H10  1  0.51787683  0.10062058  0.12561199  1
  H  H11  1  0.48212317  0.89937942  0.62561199  1
  H  H12  1  0.89937942  0.48212317  0.37438801  1
  H  H13  1  0.10062058  0.51787683  0.87438801  1
  H  H14  1  0.48212317  0.89937942  0.87438801  1
  H  H15  1  0.51787683  0.10062058  0.37438801  1
  H  H16  1  0.10062058  0.51787683  0.62561199  1
  H  H17  1  0.89937942  0.48212317  0.12561199  1
  He  He18  1  0.98959672  0.01040328  0.25000000  1
  He  He19  1  0.01040328  0.98959672  0.75000000  1
  He  He20  1  0.64997135  0.35002865  0.01981505  1
  He  He21  1  0.35002865  0.64997135  0.51981505  1
  He  He22  1  0.64997135  0.35002865  0.48018495  1
  He  He23  1  0.35002865  0.64997135  0.98018495  1
  He  He24  1  0.36247010  0.27510998  0.25000000  1
  He  He25  1  0.63752990  0.72489002  0.75000000  1
  He  He26  1  0.72489002  0.63752990  0.25000000  1
  He  He27  1  0.27510998  0.36247010  0.75000000  1
  He  He28  1  0.06051358  0.29254121  0.02187070  1
  He  He29  1  0.93948642  0.70745879  0.52187070  1
  He  He30  1  0.70745879  0.93948642  0.47812930  1
  He  He31  1  0.29254121  0.06051358  0.97812930  1
  He  He32  1  0.93948642  0.70745879  0.97812930  1
  He  He33  1  0.06051358  0.29254121  0.47812930  1
  He  He34  1  0.29254121  0.06051358  0.52187070  1
  He  He35  1  0.70745879  0.93948642  0.02187070  1
  He  He36  1  0.40140874  0.88257543  0.25000000  1
  He  He37  1  0.59859126  0.11742457  0.75000000  1
  He  He38  1  0.11742457  0.59859126  0.25000000  1
  He  He39  1  0.88257543  0.40140874  0.75000000  1
