# generated using pymatgen
data_H2He
_symmetry_space_group_name_H-M   'P 1'
_cell_length_a   8.00135175
_cell_length_b   8.31647218
_cell_length_c   15.65398083
_cell_angle_alpha   90.00000000
_cell_angle_beta   90.00000000
_cell_angle_gamma   90.00000000
_symmetry_Int_Tables_number   1
_chemical_formula_structural   H2He
_chemical_formula_sum   'H16 He8'
_cell_volume   1041.66314744
_cell_formula_units_Z   8
loop_
 _symmetry_equiv_pos_site_id
 _symmetry_equiv_pos_as_xyz
  1  'x, y, z'
loop_
 _atom_site_type_symbol
 _atom_site_label
 _atom_site_symmetry_multiplicity
 _atom_site_fract_x
 _atom_site_fract_y
 _atom_site_fract_z
 _atom_site_occupancy
  H  H0  1  0.15569353  0.88999202  0.20435765  1
  H  H1  1  0.65569353  0.11000798  0.29564235  1
  H  H2  1  0.34430647  0.38999202  0.79564235  1
  H  H3  1  0.84430647  0.61000798  0.70435765  1
  H  H4  1  0.84430647  0.11000798  0.79564235  1
  H  H5  1  0.34430647  0.88999202  0.70435765  1
  H  H6  1  0.65569353  0.61000798  0.20435765  1
  H  H7  1  0.15569353  0.38999202  0.29564235  1
  H  H8  1  0.00503734  0.73360080  0.96947054  1
  H  H9  1  0.50503734  0.26639920  0.53052946  1
  H  H10  1  0.49496266  0.23360080  0.03052946  1
  H  H11  1  0.99496266  0.76639920  0.46947054  1
  H  H12  1  0.99496266  0.26639920  0.03052946  1
  H  H13  1  0.49496266  0.73360080  0.46947054  1
  H  H14  1  0.50503734  0.76639920  0.96947054  1
  H  H15  1  0.00503734  0.23360080  0.53052946  1
  He  He16  1  0.27564120  0.54948186  0.11178625  1
  He  He17  1  0.77564120  0.45051814  0.38821375  1
  He  He18  1  0.22435880  0.04948186  0.88821375  1
  He  He19  1  0.72435880  0.95051814  0.61178625  1
  He  He20  1  0.72435880  0.45051814  0.88821375  1
  He  He21  1  0.22435880  0.54948186  0.61178625  1
  He  He22  1  0.77564120  0.95051814  0.11178625  1
  He  He23  1  0.27564120  0.04948186  0.38821375  1
