# generated using pymatgen
data_H6He2LiBe6
_symmetry_space_group_name_H-M   'P 1'
_cell_length_a   7.26813766
_cell_length_b   7.26813766
_cell_length_c   7.26813766
_cell_angle_alpha   60.00000000
_cell_angle_beta   60.00000000
_cell_angle_gamma   60.00000000
_symmetry_Int_Tables_number   1
_chemical_formula_structural   H6He2LiBe6
_chemical_formula_sum   'H6 He2 Li1 Be6'
_cell_volume   271.49037401
_cell_formula_units_Z   1
loop_
 _symmetry_equiv_pos_site_id
 _symmetry_equiv_pos_as_xyz
  1  'x, y, z'
loop_
 _atom_site_type_symbol
 _atom_site_label
 _atom_site_symmetry_multiplicity
 _atom_site_fract_x
 _atom_site_fract_y
 _atom_site_fract_z
 _atom_site_occupancy
  H  H0  1  0.18531715  0.81468285  0.81468285  1
  H  H1  1  0.81468285  0.18531715  0.18531715  1
  H  H2  1  0.18531715  0.18531715  0.81468285  1
  H  H3  1  0.81468285  0.81468285  0.18531715  1
  H  H4  1  0.18531715  0.81468285  0.18531715  1
  H  H5  1  0.81468285  0.18531715  0.81468285  1
  He  He6  1  0.50000000  0.50000000  0.50000000  1
  He  He7  1  0.75000000  0.75000000  0.75000000  1
  Li  Li8  1  0.00000000  0.00000000  0.00000000  1
  Be  Be9  1  0.29952642  0.70047358  0.70047358  1
  Be  Be10  1  0.70047358  0.29952642  0.29952642  1
  Be  Be11  1  0.29952642  0.29952642  0.70047358  1
  Be  Be12  1  0.70047358  0.70047358  0.29952642  1
  Be  Be13  1  0.29952642  0.70047358  0.29952642  1
  Be  Be14  1  0.70047358  0.29952642  0.70047358  1
