# generated using pymatgen
data_HHeLi4
_symmetry_space_group_name_H-M   'P 1'
_cell_length_a   5.13350520
_cell_length_b   5.13348902
_cell_length_c   11.47323673
_cell_angle_alpha   90.00236906
_cell_angle_beta   89.99797045
_cell_angle_gamma   120.00350724
_symmetry_Int_Tables_number   1
_chemical_formula_structural   HHeLi4
_chemical_formula_sum   'H3 He3 Li12'
_cell_volume   261.83510888
_cell_formula_units_Z   3
loop_
 _symmetry_equiv_pos_site_id
 _symmetry_equiv_pos_as_xyz
  1  'x, y, z'
loop_
 _atom_site_type_symbol
 _atom_site_label
 _atom_site_symmetry_multiplicity
 _atom_site_fract_x
 _atom_site_fract_y
 _atom_site_fract_z
 _atom_site_occupancy
  H  H0  1  0.46121508  0.99999696  0.33332594  1
  H  H1  1  0.99999477  0.46121548  0.66665963  1
  H  H2  1  0.53878477  0.53878603  0.99999368  1
  He  He3  1  0.46030620  -0.00000870  0.83330567  1
  He  He4  1  -0.00001421  0.46030910  0.16668202  1
  He  He5  1  0.53967618  0.53967411  0.49998889  1
  Li  Li6  1  0.40546545  0.29056505  0.38684856  1
  Li  Li7  1  0.70943695  0.11489105  0.72017793  1
  Li  Li8  1  0.88508107  0.59455182  0.05349968  1
  Li  Li9  1  0.29054783  0.40547037  0.61313364  1
  Li  Li10  1  0.11489045  0.70942427  0.27979775  1
  Li  Li11  1  0.59455908  0.88508164  0.94647647  1
  Li  Li12  1  0.40605647  0.28285355  0.88199816  1
  Li  Li13  1  0.71717237  0.12321840  0.21532011  1
  Li  Li14  1  0.87680550  0.59396453  0.54866495  1
  Li  Li15  1  0.28284507  0.40605017  0.11798018  1
  Li  Li16  1  0.12321756  0.71717196  0.78465762  1
  Li  Li17  1  0.59395941  0.87678419  0.45132248  1
