# generated using pymatgen
data_H2He6LiBe
_symmetry_space_group_name_H-M   'P 1'
_cell_length_a   5.37984840
_cell_length_b   5.67667405
_cell_length_c   9.30148038
_cell_angle_alpha   90.00000000
_cell_angle_beta   90.00000000
_cell_angle_gamma   90.00000000
_symmetry_Int_Tables_number   1
_chemical_formula_structural   H2He6LiBe
_chemical_formula_sum   'H4 He12 Li2 Be2'
_cell_volume   284.06391628
_cell_formula_units_Z   2
loop_
 _symmetry_equiv_pos_site_id
 _symmetry_equiv_pos_as_xyz
  1  'x, y, z'
loop_
 _atom_site_type_symbol
 _atom_site_label
 _atom_site_symmetry_multiplicity
 _atom_site_fract_x
 _atom_site_fract_y
 _atom_site_fract_z
 _atom_site_occupancy
  H  H0  1  -0.00000000  0.43847055  0.29448029  1
  H  H1  1  0.00000000  0.43847055  0.70551971  1
  H  H2  1  0.50000000  0.93837935  0.20901230  1
  H  H3  1  0.50000000  0.93837935  0.79098770  1
  He  He4  1  0.74079745  0.80984106  0.00000000  1
  He  He5  1  0.25920255  0.80984106  0.00000000  1
  He  He6  1  0.25065298  0.28087317  0.00000000  1
  He  He7  1  0.74934702  0.28087317  0.00000000  1
  He  He8  1  0.75469460  0.75698959  0.50000000  1
  He  He9  1  0.24530540  0.75698959  0.50000000  1
  He  He10  1  0.75676739  0.28788205  0.50000000  1
  He  He11  1  0.24323261  0.28788205  0.50000000  1
  He  He12  1  0.00000000  0.05098833  0.21106780  1
  He  He13  1  0.00000000  0.05098833  0.78893220  1
  He  He14  1  0.50000000  0.54116277  0.28940693  1
  He  He15  1  0.50000000  0.54116277  0.71059307  1
  Li  Li16  1  0.50000000  0.53593043  0.00000000  1
  Li  Li17  1  0.00000000  0.01536069  0.50000000  1
  Be  Be18  1  0.00000000  0.05077423  0.00000000  1
  Be  Be19  1  0.50000000  0.52876090  0.50000000  1
