# generated using pymatgen
data_HHeLi4Be
_symmetry_space_group_name_H-M   'P 1'
_cell_length_a   4.74603648
_cell_length_b   5.92854872
_cell_length_c   10.38216619
_cell_angle_alpha   90.00000000
_cell_angle_beta   90.00000000
_cell_angle_gamma   90.00000000
_symmetry_Int_Tables_number   1
_chemical_formula_structural   HHeLi4Be
_chemical_formula_sum   'H4 He4 Li16 Be4'
_cell_volume   292.12413616
_cell_formula_units_Z   4
loop_
 _symmetry_equiv_pos_site_id
 _symmetry_equiv_pos_as_xyz
  1  'x, y, z'
loop_
 _atom_site_type_symbol
 _atom_site_label
 _atom_site_symmetry_multiplicity
 _atom_site_fract_x
 _atom_site_fract_y
 _atom_site_fract_z
 _atom_site_occupancy
  H  H0  1  0.98203629  0.75000000  0.27747870  1
  H  H1  1  0.48203629  0.25000000  0.22252130  1
  H  H2  1  0.01796371  0.25000000  0.72252130  1
  H  H3  1  0.51796371  0.75000000  0.77747870  1
  He  He4  1  0.00000000  0.00000000  0.00000000  1
  He  He5  1  0.50000000  0.00000000  0.50000000  1
  He  He6  1  0.00000000  0.50000000  0.00000000  1
  He  He7  1  0.50000000  0.50000000  0.50000000  1
  Li  Li8  1  0.74344798  0.75000000  0.09624804  1
  Li  Li9  1  0.24344798  0.25000000  0.40375196  1
  Li  Li10  1  0.25655202  0.25000000  0.90375196  1
  Li  Li11  1  0.75655202  0.75000000  0.59624804  1
  Li  Li12  1  0.20595702  0.75000000  0.45661506  1
  Li  Li13  1  0.70595702  0.25000000  0.04338494  1
  Li  Li14  1  0.79404298  0.25000000  0.54338494  1
  Li  Li15  1  0.29404298  0.75000000  0.95661506  1
  Li  Li16  1  0.28508280  0.95632656  0.16775294  1
  Li  Li17  1  0.78508280  0.04367344  0.33224706  1
  Li  Li18  1  0.71491720  0.45632656  0.83224706  1
  Li  Li19  1  0.21491720  0.54367344  0.66775294  1
  Li  Li20  1  0.71491720  0.04367344  0.83224706  1
  Li  Li21  1  0.21491720  0.95632656  0.66775294  1
  Li  Li22  1  0.28508280  0.54367344  0.16775294  1
  Li  Li23  1  0.78508280  0.45632656  0.33224706  1
  Be  Be24  1  0.42059841  0.75000000  0.09427466  1
  Be  Be25  1  0.92059841  0.25000000  0.40572534  1
  Be  Be26  1  0.57940159  0.25000000  0.90572534  1
  Be  Be27  1  0.07940159  0.75000000  0.59427466  1
