# generated using pymatgen
data_H2
_symmetry_space_group_name_H-M   'P 1'
_cell_length_a   4.47340737
_cell_length_b   4.47340737
_cell_length_c   4.55547067
_cell_angle_alpha   90.00000000
_cell_angle_beta   90.00000000
_cell_angle_gamma   118.99490698
_symmetry_Int_Tables_number   1
_chemical_formula_structural   H2
_chemical_formula_sum   H4
_cell_volume   79.73533218
_cell_formula_units_Z   2
loop_
 _symmetry_equiv_pos_site_id
 _symmetry_equiv_pos_as_xyz
  1  'x, y, z'
loop_
 _atom_site_type_symbol
 _atom_site_label
 _atom_site_symmetry_multiplicity
 _atom_site_fract_x
 _atom_site_fract_y
 _atom_site_fract_z
 _atom_site_occupancy
  H  H0  1  0.15607423  0.84392577  0.91813121  1
  H  H1  1  0.34392577  0.65607423  0.41813121  1
  H  H2  1  0.65607423  0.34392577  0.58186879  1
  H  H3  1  0.84392577  0.15607423  0.08186879  1
