# generated using pymatgen
data_HHe3Li
_symmetry_space_group_name_H-M   'P 1'
_cell_length_a   6.29492305
_cell_length_b   10.23815057
_cell_length_c   16.79771321
_cell_angle_alpha   90.00000000
_cell_angle_beta   90.00000000
_cell_angle_gamma   90.00000000
_symmetry_Int_Tables_number   1
_chemical_formula_structural   HHe3Li
_chemical_formula_sum   'H8 He24 Li8'
_cell_volume   1082.58523497
_cell_formula_units_Z   8
loop_
 _symmetry_equiv_pos_site_id
 _symmetry_equiv_pos_as_xyz
  1  'x, y, z'
loop_
 _atom_site_type_symbol
 _atom_site_label
 _atom_site_symmetry_multiplicity
 _atom_site_fract_x
 _atom_site_fract_y
 _atom_site_fract_z
 _atom_site_occupancy
  H  H0  1  0.89974203  0.58679427  0.36091091  1
  H  H1  1  0.10025797  0.08679427  0.13908909  1
  H  H2  1  0.39974203  0.91320573  0.63908909  1
  H  H3  1  0.60025797  0.41320573  0.86091091  1
  H  H4  1  0.10025797  0.41320573  0.63908909  1
  H  H5  1  0.89974203  0.91320573  0.86091091  1
  H  H6  1  0.60025797  0.08679427  0.36091091  1
  H  H7  1  0.39974203  0.58679427  0.13908909  1
  He  He8  1  0.05117397  0.67436572  0.43215777  1
  He  He9  1  0.94882603  0.17436572  0.06784223  1
  He  He10  1  0.55117397  0.82563428  0.56784223  1
  He  He11  1  0.44882603  0.32563428  0.93215777  1
  He  He12  1  0.94882603  0.32563428  0.56784223  1
  He  He13  1  0.05117397  0.82563428  0.93215777  1
  He  He14  1  0.44882603  0.17436572  0.43215777  1
  He  He15  1  0.55117397  0.67436572  0.06784223  1
  He  He16  1  0.64075586  0.55565464  0.39738366  1
  He  He17  1  0.35924414  0.05565464  0.10261634  1
  He  He18  1  0.14075586  0.94434536  0.60261634  1
  He  He19  1  0.85924414  0.44434536  0.89738366  1
  He  He20  1  0.35924414  0.44434536  0.60261634  1
  He  He21  1  0.64075586  0.94434536  0.89738366  1
  He  He22  1  0.85924414  0.05565464  0.39738366  1
  He  He23  1  0.14075586  0.55565464  0.10261634  1
  He  He24  1  0.02816182  0.43959840  0.33434754  1
  He  He25  1  0.97183818  0.93959840  0.16565246  1
  He  He26  1  0.52816182  0.06040160  0.66565246  1
  He  He27  1  0.47183818  0.56040160  0.83434754  1
  He  He28  1  0.97183818  0.56040160  0.66565246  1
  He  He29  1  0.02816182  0.06040160  0.83434754  1
  He  He30  1  0.47183818  0.93959840  0.33434754  1
  He  He31  1  0.52816182  0.43959840  0.16565246  1
  Li  Li32  1  0.88213997  0.66275541  0.29409976  1
  Li  Li33  1  0.11786003  0.16275541  0.20590024  1
  Li  Li34  1  0.38213997  0.83724459  0.70590024  1
  Li  Li35  1  0.61786003  0.33724459  0.79409976  1
  Li  Li36  1  0.11786003  0.33724459  0.70590024  1
  Li  Li37  1  0.88213997  0.83724459  0.79409976  1
  Li  Li38  1  0.61786003  0.16275541  0.29409976  1
  Li  Li39  1  0.38213997  0.66275541  0.20590024  1
