# generated using pymatgen
data_H2He(Li2Be)2
_symmetry_space_group_name_H-M   'P 1'
_cell_length_a   3.96766700
_cell_length_b   7.50689019
_cell_length_c   8.01742233
_cell_angle_alpha   90.00000000
_cell_angle_beta   90.00000000
_cell_angle_gamma   90.00000000
_symmetry_Int_Tables_number   1
_chemical_formula_structural   H2He(Li2Be)2
_chemical_formula_sum   'H4 He2 Li8 Be4'
_cell_volume   238.79764502
_cell_formula_units_Z   2
loop_
 _symmetry_equiv_pos_site_id
 _symmetry_equiv_pos_as_xyz
  1  'x, y, z'
loop_
 _atom_site_type_symbol
 _atom_site_label
 _atom_site_symmetry_multiplicity
 _atom_site_fract_x
 _atom_site_fract_y
 _atom_site_fract_z
 _atom_site_occupancy
  H  H0  1  0.84582622  0.74490136  0.00000000  1
  H  H1  1  0.15417378  0.24490136  0.50000000  1
  H  H2  1  0.84582622  0.75509864  0.50000000  1
  H  H3  1  0.15417378  0.25509864  -0.00000000  1
  He  He4  1  0.50000000  0.50000000  0.00000000  1
  He  He5  1  0.50000000  0.00000000  0.50000000  1
  Li  Li6  1  0.37710799  0.41389734  0.31336180  1
  Li  Li7  1  0.62289201  0.91389734  0.18663820  1
  Li  Li8  1  0.37710799  0.08610266  0.18663820  1
  Li  Li9  1  0.62289201  0.58610266  0.31336180  1
  Li  Li10  1  0.62289201  0.58610266  0.68663820  1
  Li  Li11  1  0.37710799  0.08610266  0.81336180  1
  Li  Li12  1  0.62289201  0.91389734  0.81336180  1
  Li  Li13  1  0.37710799  0.41389734  0.68663820  1
  Be  Be14  1  0.50000000  0.50000000  0.24238269  1
  Be  Be15  1  0.50000000  -0.00000000  0.25761731  1
  Be  Be16  1  0.50000000  0.50000000  0.75761731  1
  Be  Be17  1  0.50000000  0.00000000  0.74238269  1
