# generated using pymatgen
data_HHeLi5Be
_symmetry_space_group_name_H-M   'P 1'
_cell_length_a   6.73096079
_cell_length_b   7.69524278
_cell_length_c   7.48426079
_cell_angle_alpha   90.00000000
_cell_angle_beta   90.00000000
_cell_angle_gamma   90.00000000
_symmetry_Int_Tables_number   1
_chemical_formula_structural   HHeLi5Be
_chemical_formula_sum   'H4 He4 Li20 Be4'
_cell_volume   387.65759678
_cell_formula_units_Z   4
loop_
 _symmetry_equiv_pos_site_id
 _symmetry_equiv_pos_as_xyz
  1  'x, y, z'
loop_
 _atom_site_type_symbol
 _atom_site_label
 _atom_site_symmetry_multiplicity
 _atom_site_fract_x
 _atom_site_fract_y
 _atom_site_fract_z
 _atom_site_occupancy
  H  H0  1  0.75000000  0.87090189  0.37386810  1
  H  H1  1  0.25000000  0.37090189  0.12613190  1
  H  H2  1  0.25000000  0.12909811  0.62613190  1
  H  H3  1  0.75000000  0.62909811  0.87386810  1
  He  He4  1  0.00000000  0.00000000  0.00000000  1
  He  He5  1  0.00000000  0.50000000  0.50000000  1
  He  He6  1  0.50000000  0.00000000  0.00000000  1
  He  He7  1  0.50000000  0.50000000  0.50000000  1
  Li  Li8  1  0.25000000  0.82614010  0.10931828  1
  Li  Li9  1  0.75000000  0.32614010  0.39068172  1
  Li  Li10  1  0.75000000  0.17385990  0.89068172  1
  Li  Li11  1  0.25000000  0.67385990  0.60931828  1
  Li  Li12  1  0.25000000  0.99931459  0.81434318  1
  Li  Li13  1  0.75000000  0.49931459  0.68565682  1
  Li  Li14  1  0.75000000  0.00068541  0.18565682  1
  Li  Li15  1  0.25000000  0.50068541  0.31434318  1
  Li  Li16  1  0.75000000  0.51107083  0.06823366  1
  Li  Li17  1  0.25000000  0.01107083  0.43176634  1
  Li  Li18  1  0.25000000  0.48892917  0.93176634  1
  Li  Li19  1  0.75000000  0.98892917  0.56823366  1
  Li  Li20  1  0.54751605  0.76283777  0.87278693  1
  Li  Li21  1  0.45248395  0.26283777  0.62721307  1
  Li  Li22  1  0.04751605  0.23716223  0.12721307  1
  Li  Li23  1  0.95248395  0.73716223  0.37278693  1
  Li  Li24  1  0.45248395  0.23716223  0.12721307  1
  Li  Li25  1  0.54751605  0.73716223  0.37278693  1
  Li  Li26  1  0.95248395  0.76283777  0.87278693  1
  Li  Li27  1  0.04751605  0.26283777  0.62721307  1
  Be  Be28  1  0.25000000  0.77287198  0.34491855  1
  Be  Be29  1  0.75000000  0.27287198  0.15508145  1
  Be  Be30  1  0.75000000  0.22712802  0.65508145  1
  Be  Be31  1  0.25000000  0.72712802  0.84491855  1
