# generated using pymatgen
data_HHe2
_symmetry_space_group_name_H-M   'P 1'
_cell_length_a   8.61047091
_cell_length_b   8.61047091
_cell_length_c   4.75128199
_cell_angle_alpha   90.00000000
_cell_angle_beta   90.00000000
_cell_angle_gamma   148.83498203
_symmetry_Int_Tables_number   1
_chemical_formula_structural   HHe2
_chemical_formula_sum   'H2 He4'
_cell_volume   182.29673329
_cell_formula_units_Z   2
loop_
 _symmetry_equiv_pos_site_id
 _symmetry_equiv_pos_as_xyz
  1  'x, y, z'
loop_
 _atom_site_type_symbol
 _atom_site_label
 _atom_site_symmetry_multiplicity
 _atom_site_fract_x
 _atom_site_fract_y
 _atom_site_fract_z
 _atom_site_occupancy
  H  H0  1  0.14479544  0.85520456  0.00000000  1
  H  H1  1  0.85520456  0.14479544  0.00000000  1
  He  He2  1  0.50000000  0.50000000  0.00000000  1
  He  He3  1  -0.00000000  0.00000000  0.50000000  1
  He  He4  1  0.31474982  0.68525018  0.50000000  1
  He  He5  1  0.68525018  0.31474982  0.50000000  1
