# generated using pymatgen
data_HHe4Li8
_symmetry_space_group_name_H-M   'P 1'
_cell_length_a   7.12290011
_cell_length_b   7.12290011
_cell_length_c   7.12290011
_cell_angle_alpha   60.00000000
_cell_angle_beta   60.00000000
_cell_angle_gamma   60.00000000
_symmetry_Int_Tables_number   1
_chemical_formula_structural   HHe4Li8
_chemical_formula_sum   'H1 He4 Li8'
_cell_volume   255.53804224
_cell_formula_units_Z   1
loop_
 _symmetry_equiv_pos_site_id
 _symmetry_equiv_pos_as_xyz
  1  'x, y, z'
loop_
 _atom_site_type_symbol
 _atom_site_label
 _atom_site_symmetry_multiplicity
 _atom_site_fract_x
 _atom_site_fract_y
 _atom_site_fract_z
 _atom_site_occupancy
  H  H0  1  0.00000000  0.00000000  0.00000000  1
  He  He1  1  0.39452985  0.39452985  0.81641045  1
  He  He2  1  0.39452985  0.39452985  0.39452985  1
  He  He3  1  0.39452985  0.81641045  0.39452985  1
  He  He4  1  0.81641045  0.39452985  0.39452985  1
  Li  Li5  1  0.63253698  0.63253698  0.10238907  1
  Li  Li6  1  0.63253698  0.63253698  0.63253698  1
  Li  Li7  1  0.63253698  0.10238907  0.63253698  1
  Li  Li8  1  0.10238907  0.63253698  0.63253698  1
  Li  Li9  1  0.13325642  0.13325642  0.60023073  1
  Li  Li10  1  0.13325642  0.13325642  0.13325642  1
  Li  Li11  1  0.13325642  0.60023073  0.13325642  1
  Li  Li12  1  0.60023073  0.13325642  0.13325642  1
