# generated using pymatgen
data_HHe13Li4Be
_symmetry_space_group_name_H-M   'P 1'
_cell_length_a   7.20403161
_cell_length_b   8.41981434
_cell_length_c   17.96928946
_cell_angle_alpha   90.00000000
_cell_angle_beta   90.00000000
_cell_angle_gamma   90.00000000
_symmetry_Int_Tables_number   1
_chemical_formula_structural   HHe13Li4Be
_chemical_formula_sum   'H4 He52 Li16 Be4'
_cell_volume   1089.95615923
_cell_formula_units_Z   4
loop_
 _symmetry_equiv_pos_site_id
 _symmetry_equiv_pos_as_xyz
  1  'x, y, z'
loop_
 _atom_site_type_symbol
 _atom_site_label
 _atom_site_symmetry_multiplicity
 _atom_site_fract_x
 _atom_site_fract_y
 _atom_site_fract_z
 _atom_site_occupancy
  H  H0  1  0.29748678  0.27906802  0.98390244  1
  H  H1  1  0.20251322  0.72093198  0.48390244  1
  H  H2  1  0.70251322  0.77906802  0.51609756  1
  H  H3  1  0.79748678  0.22093198  0.01609756  1
  He  He4  1  0.47072660  0.66506560  0.14148109  1
  He  He5  1  0.02927340  0.33493440  0.64148109  1
  He  He6  1  0.52927340  0.16506560  0.35851891  1
  He  He7  1  0.97072660  0.83493440  0.85851891  1
  He  He8  1  0.79063298  0.66533926  0.08596244  1
  He  He9  1  0.70936702  0.33466074  0.58596244  1
  He  He10  1  0.20936702  0.16533926  0.41403756  1
  He  He11  1  0.29063298  0.83466074  0.91403756  1
  He  He12  1  0.50602602  0.72148670  0.00746188  1
  He  He13  1  0.99397398  0.27851330  0.50746188  1
  He  He14  1  0.49397398  0.22148670  0.49253812  1
  He  He15  1  0.00602602  0.77851330  0.99253812  1
  He  He16  1  0.57488464  0.43680363  0.05692841  1
  He  He17  1  0.92511536  0.56319637  0.55692841  1
  He  He18  1  0.42511536  0.93680363  0.44307159  1
  He  He19  1  0.07488464  0.06319637  0.94307159  1
  He  He20  1  0.59314679  0.72699584  0.87429698  1
  He  He21  1  0.90685321  0.27300416  0.37429698  1
  He  He22  1  0.40685321  0.22699584  0.62570302  1
  He  He23  1  0.09314679  0.77300416  0.12570302  1
  He  He24  1  0.33827461  0.53033665  0.91537774  1
  He  He25  1  0.16172539  0.46966335  0.41537774  1
  He  He26  1  0.66172539  0.03033665  0.58462226  1
  He  He27  1  0.83827461  0.96966335  0.08462226  1
  He  He28  1  0.24630296  0.21753351  0.20075628  1
  He  He29  1  0.25369704  0.78246649  0.70075628  1
  He  He30  1  0.75369704  0.71753351  0.29924372  1
  He  He31  1  0.74630296  0.28246649  0.79924372  1
  He  He32  1  0.36043333  0.94240483  0.20592334  1
  He  He33  1  0.13956667  0.05759517  0.70592334  1
  He  He34  1  0.63956667  0.44240483  0.29407666  1
  He  He35  1  0.86043333  0.55759517  0.79407666  1
  He  He36  1  0.58062555  0.16749011  0.20358411  1
  He  He37  1  0.91937445  0.83250989  0.70358411  1
  He  He38  1  0.41937445  0.66749011  0.29641589  1
  He  He39  1  0.08062555  0.33250989  0.79641589  1
  He  He40  1  0.40359176  0.09585836  0.08344542  1
  He  He41  1  0.09640824  0.90414164  0.58344542  1
  He  He42  1  0.59640824  0.59585836  0.41655458  1
  He  He43  1  0.90359176  0.40414164  0.91655458  1
  He  He44  1  0.92507915  0.29637121  0.21838479  1
  He  He45  1  0.57492085  0.70362879  0.71838479  1
  He  He46  1  0.07492085  0.79637121  0.28161521  1
  He  He47  1  0.42507915  0.20362879  0.78161521  1
  He  He48  1  0.16686531  0.50388441  0.20554294  1
  He  He49  1  0.33313469  0.49611559  0.70554294  1
  He  He50  1  0.83313469  0.00388441  0.29445706  1
  He  He51  1  0.66686531  0.99611559  0.79445706  1
  He  He52  1  0.06865098  0.34495130  0.08983190  1
  He  He53  1  0.43134902  0.65504870  0.58983190  1
  He  He54  1  0.93134902  0.84495130  0.41016810  1
  He  He55  1  0.56865098  0.15504870  0.91016810  1
  Li  Li56  1  0.58059982  0.60841895  0.07317196  1
  Li  Li57  1  0.91940018  0.39158105  0.57317196  1
  Li  Li58  1  0.41940018  0.10841895  0.42682804  1
  Li  Li59  1  0.08059982  0.89158105  0.92682804  1
  Li  Li60  1  0.42820972  0.68592668  0.92482527  1
  Li  Li61  1  0.07179028  0.31407332  0.42482527  1
  Li  Li62  1  0.57179028  0.18592668  0.57517473  1
  Li  Li63  1  0.92820972  0.81407332  0.07517473  1
  Li  Li64  1  0.40201025  0.10214552  0.16535553  1
  Li  Li65  1  0.09798975  0.89785448  0.66535553  1
  Li  Li66  1  0.59798975  0.60214552  0.33464447  1
  Li  Li67  1  0.90201025  0.39785448  0.83464447  1
  Li  Li68  1  0.09754227  0.34437682  0.17148630  1
  Li  Li69  1  0.40245773  0.65562318  0.67148630  1
  Li  Li70  1  0.90245773  0.84437682  0.32851370  1
  Li  Li71  1  0.59754227  0.15562318  0.82851370  1
  Be  Be72  1  0.26368283  0.72367586  0.21143631  1
  Be  Be73  1  0.23631717  0.27632414  0.71143631  1
  Be  Be74  1  0.73631717  0.22367586  0.28856369  1
  Be  Be75  1  0.76368283  0.77632414  0.78856369  1
