# generated using pymatgen
data_H4He7Li2
_symmetry_space_group_name_H-M   'P 1'
_cell_length_a   10.04538018
_cell_length_b   10.79330163
_cell_length_c   6.73859523
_cell_angle_alpha   103.47934737
_cell_angle_beta   101.47108473
_cell_angle_gamma   89.35159738
_symmetry_Int_Tables_number   1
_chemical_formula_structural   H4He7Li2
_chemical_formula_sum   'H16 He28 Li8'
_cell_volume   695.82917490
_cell_formula_units_Z   4
loop_
 _symmetry_equiv_pos_site_id
 _symmetry_equiv_pos_as_xyz
  1  'x, y, z'
loop_
 _atom_site_type_symbol
 _atom_site_label
 _atom_site_symmetry_multiplicity
 _atom_site_fract_x
 _atom_site_fract_y
 _atom_site_fract_z
 _atom_site_occupancy
  H  H0  1  0.22799180  0.10154505  0.92754290  1
  H  H1  1  0.77200820  0.89845495  0.07245710  1
  H  H2  1  0.28936617  0.32039876  0.08930791  1
  H  H3  1  0.71063383  0.67960124  0.91069209  1
  H  H4  1  0.83565232  0.25954769  0.56317222  1
  H  H5  1  0.16434768  0.74045231  0.43682778  1
  H  H6  1  0.68875090  0.25032139  0.83533314  1
  H  H7  1  0.31124910  0.74967861  0.16466686  1
  H  H8  1  0.08522836  0.26270740  0.79382278  1
  H  H9  1  0.91477164  0.73729260  0.20617722  1
  H  H10  1  0.44038810  0.19983663  0.87040847  1
  H  H11  1  0.55961190  0.80016337  0.12959153  1
  H  H12  1  0.79145532  0.14690881  0.14790403  1
  H  H13  1  0.20854468  0.85309119  0.85209597  1
  H  H14  1  0.71198250  0.44819373  0.70376321  1
  H  H15  1  0.28801750  0.55180627  0.29623679  1
  He  He16  1  0.78557964  0.02368260  0.02834947  1
  He  He17  1  0.21442036  0.97631740  0.97165053  1
  He  He18  1  0.10181249  0.13525995  0.79056253  1
  He  He19  1  0.89818751  0.86474005  0.20943747  1
  He  He20  1  0.34450891  0.10025111  0.81520674  1
  He  He21  1  0.65549109  0.89974889  0.18479326  1
  He  He22  1  0.25505148  0.19839689  0.12611282  1
  He  He23  1  0.74494852  0.80160311  0.87388718  1
  He  He24  1  0.17836577  0.35547464  0.92547402  1
  He  He25  1  0.82163423  0.64452536  0.07452598  1
  He  He26  1  0.30248318  0.42213056  0.28270193  1
  He  He27  1  0.69751682  0.57786944  0.71729807  1
  He  He28  1  0.42161756  0.31094415  0.01251653  1
  He  He29  1  0.57838244  0.68905585  0.98748347  1
  He  He30  1  0.97942763  0.30674263  0.66843004  1
  He  He31  1  0.02057237  0.69325737  0.33156996  1
  He  He32  1  0.84149637  0.17114460  0.36016229  1
  He  He33  1  0.15850363  0.82885540  0.63983771  1
  He  He34  1  0.76752892  0.19360158  0.68144709  1
  He  He35  1  0.23247108  0.80639842  0.31855291  1
  He  He36  1  0.55169907  0.18190498  0.77765505  1
  He  He37  1  0.44830093  0.81809502  0.22234495  1
  He  He38  1  0.76623796  0.38085157  0.53818424  1
  He  He39  1  0.23376204  0.61914843  0.46181576  1
  He  He40  1  0.67011246  0.38977308  0.84188804  1
  He  He41  1  0.32988754  0.61022692  0.15811196  1
  He  He42  1  0.75370226  0.24677941  0.05467405  1
  He  He43  1  0.24629774  0.75322059  0.94532595  1
  Li  Li44  1  0.12288047  0.04724772  0.35404390  1
  Li  Li45  1  0.87711953  0.95275228  0.64595610  1
  Li  Li46  1  0.51763398  0.12202375  0.33145442  1
  Li  Li47  1  0.48236602  0.87797625  0.66854558  1
  Li  Li48  1  0.38003118  0.49417669  0.75677384  1
  Li  Li49  1  0.61996882  0.50582331  0.24322616  1
  Li  Li50  1  0.98785268  0.40707781  0.23195809  1
  Li  Li51  1  0.01214732  0.59292219  0.76804191  1
