# generated using pymatgen
data_HHe
_symmetry_space_group_name_H-M   'P 1'
_cell_length_a   2.93715711
_cell_length_b   2.93715711
_cell_length_c   2.86478544
_cell_angle_alpha   90.00000000
_cell_angle_beta   90.00000000
_cell_angle_gamma   120.00052901
_symmetry_Int_Tables_number   1
_chemical_formula_structural   HHe
_chemical_formula_sum   'H1 He1'
_cell_volume   21.40300594
_cell_formula_units_Z   1
loop_
 _symmetry_equiv_pos_site_id
 _symmetry_equiv_pos_as_xyz
  1  'x, y, z'
loop_
 _atom_site_type_symbol
 _atom_site_label
 _atom_site_symmetry_multiplicity
 _atom_site_fract_x
 _atom_site_fract_y
 _atom_site_fract_z
 _atom_site_occupancy
  H  H0  1  0.66668802  0.33331198  0.50000000  1
  He  He1  1  0.00001198  0.99998802  0.00000000  1
