# generated using pymatgen
data_HHeLi
_symmetry_space_group_name_H-M   'P 1'
_cell_length_a   6.32296845
_cell_length_b   6.32296845
_cell_length_c   6.32296845
_cell_angle_alpha   95.39634694
_cell_angle_beta   95.39634694
_cell_angle_gamma   144.28299731
_symmetry_Int_Tables_number   1
_chemical_formula_structural   HHeLi
_chemical_formula_sum   'H4 He4 Li4'
_cell_volume   140.46470974
_cell_formula_units_Z   4
loop_
 _symmetry_equiv_pos_site_id
 _symmetry_equiv_pos_as_xyz
  1  'x, y, z'
loop_
 _atom_site_type_symbol
 _atom_site_label
 _atom_site_symmetry_multiplicity
 _atom_site_fract_x
 _atom_site_fract_y
 _atom_site_fract_z
 _atom_site_occupancy
  H  H0  1  0.40772312  0.90772312  0.81544624  1
  H  H1  1  0.09227688  0.59227688  0.18455376  1
  H  H2  1  0.09227688  0.90772312  0.50000000  1
  H  H3  1  0.40772312  0.59227688  0.50000000  1
  He  He4  1  0.75003880  0.60152727  0.85148846  1
  He  He5  1  0.75003880  0.89855034  0.14851154  1
  He  He6  1  0.39847273  0.24996120  0.14851154  1
  He  He7  1  0.10144966  0.24996120  0.85148846  1
  Li  Li8  1  0.24987767  0.44106167  0.19118400  1
  Li  Li9  1  0.24987767  0.05869367  0.80881600  1
  Li  Li10  1  0.55893833  0.75012233  0.80881600  1
  Li  Li11  1  0.94130633  0.75012233  0.19118400  1
