# generated using pymatgen
data_H2He
_symmetry_space_group_name_H-M   'P 1'
_cell_length_a   5.31365834
_cell_length_b   5.31365834
_cell_length_c   8.53712953
_cell_angle_alpha   90.00000000
_cell_angle_beta   90.00000000
_cell_angle_gamma   120.49165492
_symmetry_Int_Tables_number   1
_chemical_formula_structural   H2He
_chemical_formula_sum   'H8 He4'
_cell_volume   207.70969362
_cell_formula_units_Z   4
loop_
 _symmetry_equiv_pos_site_id
 _symmetry_equiv_pos_as_xyz
  1  'x, y, z'
loop_
 _atom_site_type_symbol
 _atom_site_label
 _atom_site_symmetry_multiplicity
 _atom_site_fract_x
 _atom_site_fract_y
 _atom_site_fract_z
 _atom_site_occupancy
  H  H0  1  -0.00000000  0.00000000  -0.00000000  1
  H  H1  1  0.00000000  -0.00000000  0.50000000  1
  H  H2  1  0.83734600  0.66574095  0.25000000  1
  H  H3  1  0.33425905  0.16265400  0.25000000  1
  H  H4  1  0.83593122  0.16406878  0.25000000  1
  H  H5  1  0.16265400  0.33425905  0.75000000  1
  H  H6  1  0.66574095  0.83734600  0.75000000  1
  H  H7  1  0.16406878  0.83593122  0.75000000  1
  He  He8  1  0.33474225  0.66525775  0.05919860  1
  He  He9  1  0.66525775  0.33474225  0.55919860  1
  He  He10  1  0.66525775  0.33474225  0.94080140  1
  He  He11  1  0.33474225  0.66525775  0.44080140  1
