# generated using pymatgen
data_HHeLi3
_symmetry_space_group_name_H-M   'P 1'
_cell_length_a   5.71703669
_cell_length_b   4.75350709
_cell_length_c   7.23157921
_cell_angle_alpha   70.85979619
_cell_angle_beta   90.00000000
_cell_angle_gamma   90.00000000
_symmetry_Int_Tables_number   1
_chemical_formula_structural   HHeLi3
_chemical_formula_sum   'H2 He2 Li6'
_cell_volume   185.66111612
_cell_formula_units_Z   2
loop_
 _symmetry_equiv_pos_site_id
 _symmetry_equiv_pos_as_xyz
  1  'x, y, z'
loop_
 _atom_site_type_symbol
 _atom_site_label
 _atom_site_symmetry_multiplicity
 _atom_site_fract_x
 _atom_site_fract_y
 _atom_site_fract_z
 _atom_site_occupancy
  H  H0  1  0.25000000  0.94676371  0.17761074  1
  H  H1  1  0.75000000  0.05323629  0.82238926  1
  He  He2  1  0.25000000  0.64517831  0.70791704  1
  He  He3  1  0.75000000  0.35482169  0.29208296  1
  Li  Li4  1  0.25000000  0.28161260  0.11443921  1
  Li  Li5  1  0.75000000  0.71838740  0.88556079  1
  Li  Li6  1  0.46184462  0.84176461  0.30560179  1
  Li  Li7  1  0.96184462  0.15823539  0.69439821  1
  Li  Li8  1  0.53815538  0.15823539  0.69439821  1
  Li  Li9  1  0.03815538  0.84176461  0.30560179  1
