# generated using pymatgen
data_H2He
_symmetry_space_group_name_H-M   'P 1'
_cell_length_a   5.45314356
_cell_length_b   8.79862742
_cell_length_c   10.56514991
_cell_angle_alpha   90.00000000
_cell_angle_beta   90.00000000
_cell_angle_gamma   90.00000000
_symmetry_Int_Tables_number   1
_chemical_formula_structural   H2He
_chemical_formula_sum   'H8 He4'
_cell_volume   506.91777841
_cell_formula_units_Z   4
loop_
 _symmetry_equiv_pos_site_id
 _symmetry_equiv_pos_as_xyz
  1  'x, y, z'
loop_
 _atom_site_type_symbol
 _atom_site_label
 _atom_site_symmetry_multiplicity
 _atom_site_fract_x
 _atom_site_fract_y
 _atom_site_fract_z
 _atom_site_occupancy
  H  H0  1  0.25000000  0.01987113  0.83294126  1
  H  H1  1  0.75000000  0.48012887  0.33294126  1
  H  H2  1  0.75000000  0.98012887  0.16705874  1
  H  H3  1  0.25000000  0.51987113  0.66705874  1
  H  H4  1  0.25000000  0.14348261  0.42324959  1
  H  H5  1  0.75000000  0.35651739  0.92324959  1
  H  H6  1  0.75000000  0.85651739  0.57675041  1
  H  H7  1  0.25000000  0.64348261  0.07675041  1
  He  He8  1  0.25000000  0.24517283  0.10621737  1
  He  He9  1  0.75000000  0.25482717  0.60621737  1
  He  He10  1  0.75000000  0.75482717  0.89378263  1
  He  He11  1  0.25000000  0.74517283  0.39378263  1
