# generated using pymatgen
data_H2He11Li10
_symmetry_space_group_name_H-M   'P 1'
_cell_length_a   14.56175606
_cell_length_b   14.56175606
_cell_length_c   3.61656344
_cell_angle_alpha   90.00000000
_cell_angle_beta   90.00000000
_cell_angle_gamma   90.00000000
_symmetry_Int_Tables_number   1
_chemical_formula_structural   H2He11Li10
_chemical_formula_sum   'H4 He22 Li20'
_cell_volume   766.87325164
_cell_formula_units_Z   2
loop_
 _symmetry_equiv_pos_site_id
 _symmetry_equiv_pos_as_xyz
  1  'x, y, z'
loop_
 _atom_site_type_symbol
 _atom_site_label
 _atom_site_symmetry_multiplicity
 _atom_site_fract_x
 _atom_site_fract_y
 _atom_site_fract_z
 _atom_site_occupancy
  H  H0  1  0.18389602  0.18389602  -0.00000000  1
  H  H1  1  0.81610398  0.81610398  0.00000000  1
  H  H2  1  0.31610398  0.68389602  0.50000000  1
  H  H3  1  0.68389602  0.31610398  0.50000000  1
  He  He4  1  0.00000000  0.00000000  0.00000000  1
  He  He5  1  0.50000000  0.50000000  0.50000000  1
  He  He6  1  0.29535830  0.51954555  0.00000000  1
  He  He7  1  0.70464170  0.48045445  0.00000000  1
  He  He8  1  0.98045445  0.79535830  0.50000000  1
  He  He9  1  0.01954555  0.20464170  0.50000000  1
  He  He10  1  0.20464170  0.01954555  0.50000000  1
  He  He11  1  0.79535830  0.98045445  0.50000000  1
  He  He12  1  0.51954555  0.29535830  0.00000000  1
  He  He13  1  0.48045445  0.70464170  0.00000000  1
  He  He14  1  0.16753277  0.83246723  0.00000000  1
  He  He15  1  0.83246723  0.16753277  0.00000000  1
  He  He16  1  0.66753277  0.66753277  0.50000000  1
  He  He17  1  0.33246723  0.33246723  0.50000000  1
  He  He18  1  0.39412256  0.11778170  -0.00000000  1
  He  He19  1  0.60587744  0.88221830  0.00000000  1
  He  He20  1  0.38221830  0.89412256  0.50000000  1
  He  He21  1  0.61778170  0.10587744  0.50000000  1
  He  He22  1  0.10587744  0.61778170  0.50000000  1
  He  He23  1  0.89412256  0.38221830  0.50000000  1
  He  He24  1  0.11778170  0.39412256  0.00000000  1
  He  He25  1  0.88221830  0.60587744  -0.00000000  1
  Li  Li26  1  0.40999165  0.40999165  0.00000000  1
  Li  Li27  1  0.59000835  0.59000835  0.00000000  1
  Li  Li28  1  0.09000835  0.90999165  0.50000000  1
  Li  Li29  1  0.90999165  0.09000835  0.50000000  1
  Li  Li30  1  0.68863187  0.02818410  0.00000000  1
  Li  Li31  1  0.31136813  0.97181590  -0.00000000  1
  Li  Li32  1  0.47181590  0.18863187  0.50000000  1
  Li  Li33  1  0.52818410  0.81136813  0.50000000  1
  Li  Li34  1  0.81136813  0.52818410  0.50000000  1
  Li  Li35  1  0.18863187  0.47181590  0.50000000  1
  Li  Li36  1  0.02818410  0.68863187  0.00000000  1
  Li  Li37  1  0.97181590  0.31136813  -0.00000000  1
  Li  Li38  1  0.24384802  0.24384802  0.00000000  1
  Li  Li39  1  0.75615198  0.75615198  -0.00000000  1
  Li  Li40  1  0.25615198  0.74384802  0.50000000  1
  Li  Li41  1  0.74384802  0.25615198  0.50000000  1
  Li  Li42  1  0.12336884  0.12336884  0.00000000  1
  Li  Li43  1  0.87663116  0.87663116  -0.00000000  1
  Li  Li44  1  0.37663116  0.62336884  0.50000000  1
  Li  Li45  1  0.62336884  0.37663116  0.50000000  1
