# generated using pymatgen
data_H6He4Li
_symmetry_space_group_name_H-M   'P 1'
_cell_length_a   12.44267173
_cell_length_b   12.44267173
_cell_length_c   12.44267173
_cell_angle_alpha   161.80768003
_cell_angle_beta   161.80768003
_cell_angle_gamma   25.83827599
_symmetry_Int_Tables_number   1
_chemical_formula_structural   H6He4Li
_chemical_formula_sum   'H6 He4 Li1'
_cell_volume   187.70899496
_cell_formula_units_Z   1
loop_
 _symmetry_equiv_pos_site_id
 _symmetry_equiv_pos_as_xyz
  1  'x, y, z'
loop_
 _atom_site_type_symbol
 _atom_site_label
 _atom_site_symmetry_multiplicity
 _atom_site_fract_x
 _atom_site_fract_y
 _atom_site_fract_z
 _atom_site_occupancy
  H  H0  1  0.62945985  0.12945985  0.50000000  1
  H  H1  1  0.12945985  0.62945985  0.50000000  1
  H  H2  1  0.37054015  0.87054015  0.50000000  1
  H  H3  1  0.87054015  0.37054015  0.50000000  1
  H  H4  1  0.75000000  0.25000000  0.50000000  1
  H  H5  1  0.25000000  0.75000000  0.50000000  1
  He  He6  1  0.19431206  0.19431206  -0.00000000  1
  He  He7  1  0.80568794  0.80568794  0.00000000  1
  He  He8  1  0.41925296  0.41925296  0.00000000  1
  He  He9  1  0.58074704  0.58074704  -0.00000000  1
  Li  Li10  1  0.00000000  0.00000000  0.00000000  1
