# generated using pymatgen
data_H3He2(Li4Be)3
_symmetry_space_group_name_H-M   'P 1'
_cell_length_a   10.52796594
_cell_length_b   10.52796594
_cell_length_c   10.52796594
_cell_angle_alpha   109.47122063
_cell_angle_beta   109.47122063
_cell_angle_gamma   109.47122063
_symmetry_Int_Tables_number   1
_chemical_formula_structural   H3He2(Li4Be)3
_chemical_formula_sum   'H12 He8 Li48 Be12'
_cell_volume   898.27957108
_cell_formula_units_Z   4
loop_
 _symmetry_equiv_pos_site_id
 _symmetry_equiv_pos_as_xyz
  1  'x, y, z'
loop_
 _atom_site_type_symbol
 _atom_site_label
 _atom_site_symmetry_multiplicity
 _atom_site_fract_x
 _atom_site_fract_y
 _atom_site_fract_z
 _atom_site_occupancy
  H  H0  1  0.75000000  0.62500000  0.87500000  1
  H  H1  1  0.25000000  0.87500000  0.62500000  1
  H  H2  1  0.12500000  0.75000000  0.87500000  1
  H  H3  1  0.37500000  0.25000000  0.62500000  1
  H  H4  1  0.12500000  0.87500000  0.25000000  1
  H  H5  1  0.37500000  0.62500000  0.75000000  1
  H  H6  1  0.25000000  0.37500000  0.12500000  1
  H  H7  1  0.75000000  0.12500000  0.37500000  1
  H  H8  1  0.87500000  0.25000000  0.12500000  1
  H  H9  1  0.62500000  0.75000000  0.37500000  1
  H  H10  1  0.87500000  0.12500000  0.75000000  1
  H  H11  1  0.62500000  0.37500000  0.25000000  1
  He  He12  1  -0.00000000  -0.00000000  0.00000000  1
  He  He13  1  0.50000000  0.00000000  0.50000000  1
  He  He14  1  0.00000000  0.50000000  0.50000000  1
  He  He15  1  0.50000000  0.50000000  -0.00000000  1
  He  He16  1  0.00000000  0.00000000  0.50000000  1
  He  He17  1  -0.00000000  0.50000000  -0.00000000  1
  He  He18  1  0.50000000  -0.00000000  -0.00000000  1
  He  He19  1  0.50000000  0.50000000  0.50000000  1
  Li  Li20  1  0.39276757  0.30582441  0.00889886  1
  Li  Li21  1  0.79692554  0.38386870  0.49110114  1
  Li  Li22  1  0.70307446  0.19417559  0.58694316  1
  Li  Li23  1  0.10723243  0.11613130  0.91305684  1
  Li  Li24  1  0.99110114  0.29692554  0.38386870  1
  Li  Li25  1  0.50889886  0.89276757  0.30582441  1
  Li  Li26  1  0.41305684  0.60723243  0.11613130  1
  Li  Li27  1  0.08694316  0.20307446  0.19417559  1
  Li  Li28  1  0.61613130  0.91305684  0.60723243  1
  Li  Li29  1  0.69417559  0.58694316  0.20307446  1
  Li  Li30  1  0.88386870  0.49110114  0.29692554  1
  Li  Li31  1  0.80582441  0.00889886  0.89276757  1
  Li  Li32  1  0.69417559  0.60723243  0.49110114  1
  Li  Li33  1  0.61613130  0.20307446  0.00889886  1
  Li  Li34  1  0.80582441  0.29692554  0.91305684  1
  Li  Li35  1  0.88386870  0.89276757  0.58694316  1
  Li  Li36  1  0.70307446  0.00889886  0.11613130  1
  Li  Li37  1  0.10723243  0.49110114  0.19417559  1
  Li  Li38  1  0.39276757  0.58694316  0.38386870  1
  Li  Li39  1  0.79692554  0.91305684  0.30582441  1
  Li  Li40  1  0.08694316  0.38386870  0.89276757  1
  Li  Li41  1  0.41305684  0.30582441  0.29692554  1
  Li  Li42  1  0.50889886  0.11613130  0.20307446  1
  Li  Li43  1  0.99110114  0.19417559  0.60723243  1
  Li  Li44  1  0.60723243  0.69417559  0.99110114  1
  Li  Li45  1  0.20307446  0.61613130  0.50889886  1
  Li  Li46  1  0.29692554  0.80582441  0.41305684  1
  Li  Li47  1  0.89276757  0.88386870  0.08694316  1
  Li  Li48  1  0.00889886  0.70307446  0.61613130  1
  Li  Li49  1  0.49110114  0.10723243  0.69417559  1
  Li  Li50  1  0.58694316  0.39276757  0.88386870  1
  Li  Li51  1  0.91305684  0.79692554  0.80582441  1
  Li  Li52  1  0.38386870  0.08694316  0.39276757  1
  Li  Li53  1  0.30582441  0.41305684  0.79692554  1
  Li  Li54  1  0.11613130  0.50889886  0.70307446  1
  Li  Li55  1  0.19417559  0.99110114  0.10723243  1
  Li  Li56  1  0.30582441  0.39276757  0.50889886  1
  Li  Li57  1  0.38386870  0.79692554  0.99110114  1
  Li  Li58  1  0.19417559  0.70307446  0.08694316  1
  Li  Li59  1  0.11613130  0.10723243  0.41305684  1
  Li  Li60  1  0.29692554  0.99110114  0.88386870  1
  Li  Li61  1  0.89276757  0.50889886  0.80582441  1
  Li  Li62  1  0.60723243  0.41305684  0.61613130  1
  Li  Li63  1  0.20307446  0.08694316  0.69417559  1
  Li  Li64  1  0.91305684  0.61613130  0.10723243  1
  Li  Li65  1  0.58694316  0.69417559  0.70307446  1
  Li  Li66  1  0.49110114  0.88386870  0.79692554  1
  Li  Li67  1  0.00889886  0.80582441  0.39276757  1
  Be  Be68  1  0.75000000  0.37500000  0.62500000  1
  Be  Be69  1  0.25000000  0.12500000  0.87500000  1
  Be  Be70  1  0.37500000  0.75000000  0.12500000  1
  Be  Be71  1  0.12500000  0.25000000  0.37500000  1
  Be  Be72  1  0.87500000  0.62500000  0.25000000  1
  Be  Be73  1  0.62500000  0.87500000  0.75000000  1
  Be  Be74  1  0.62500000  0.25000000  0.87500000  1
  Be  Be75  1  0.87500000  0.75000000  0.62500000  1
  Be  Be76  1  0.25000000  0.62500000  0.37500000  1
  Be  Be77  1  0.75000000  0.87500000  0.12500000  1
  Be  Be78  1  0.37500000  0.12500000  0.25000000  1
  Be  Be79  1  0.12500000  0.37500000  0.75000000  1
