# generated using pymatgen
data_HHeLi4Be
_symmetry_space_group_name_H-M   'P 1'
_cell_length_a   6.09731647
_cell_length_b   6.09731647
_cell_length_c   6.09731647
_cell_angle_alpha   123.34053600
_cell_angle_beta   123.34053600
_cell_angle_gamma   84.30528261
_symmetry_Int_Tables_number   1
_chemical_formula_structural   HHeLi4Be
_chemical_formula_sum   'H1 He1 Li4 Be1'
_cell_volume   151.37702967
_cell_formula_units_Z   1
loop_
 _symmetry_equiv_pos_site_id
 _symmetry_equiv_pos_as_xyz
  1  'x, y, z'
loop_
 _atom_site_type_symbol
 _atom_site_label
 _atom_site_symmetry_multiplicity
 _atom_site_fract_x
 _atom_site_fract_y
 _atom_site_fract_z
 _atom_site_occupancy
  H  H0  1  0.50000000  0.50000000  0.00000000  1
  He  He1  1  0.25000000  0.75000000  0.50000000  1
  Li  Li2  1  0.92582729  0.85965011  0.51715908  1
  Li  Li3  1  0.34249103  0.40866821  0.48284092  1
  Li  Li4  1  0.14034989  0.65750897  0.06617717  1
  Li  Li5  1  0.59133179  0.07417271  0.93382283  1
  Be  Be6  1  -0.00000000  -0.00000000  -0.00000000  1
