# generated using pymatgen
data_H2He2Li
_symmetry_space_group_name_H-M   'P 1'
_cell_length_a   6.71184308
_cell_length_b   9.87425800
_cell_length_c   14.97710365
_cell_angle_alpha   79.71286782
_cell_angle_beta   90.00000000
_cell_angle_gamma   90.00000000
_symmetry_Int_Tables_number   1
_chemical_formula_structural   H2He2Li
_chemical_formula_sum   'H16 He16 Li8'
_cell_volume   976.64374012
_cell_formula_units_Z   8
loop_
 _symmetry_equiv_pos_site_id
 _symmetry_equiv_pos_as_xyz
  1  'x, y, z'
loop_
 _atom_site_type_symbol
 _atom_site_label
 _atom_site_symmetry_multiplicity
 _atom_site_fract_x
 _atom_site_fract_y
 _atom_site_fract_z
 _atom_site_occupancy
  H  H0  1  0.08800397  0.41797528  0.25689697  1
  H  H1  1  0.58800397  0.08202472  0.24310303  1
  H  H2  1  0.91199603  0.58202472  0.74310303  1
  H  H3  1  0.41199603  0.91797528  0.75689697  1
  H  H4  1  0.17452927  0.32995124  0.52270771  1
  H  H5  1  0.67452927  0.17004876  0.97729229  1
  H  H6  1  0.82547073  0.67004876  0.47729229  1
  H  H7  1  0.32547073  0.82995124  0.02270771  1
  H  H8  1  0.63697592  0.26661333  0.66004777  1
  H  H9  1  0.13697592  0.23338667  0.83995223  1
  H  H10  1  0.36302408  0.73338667  0.33995223  1
  H  H11  1  0.86302408  0.76661333  0.16004777  1
  H  H12  1  0.92094679  0.95209343  0.62081172  1
  H  H13  1  0.42094679  0.54790657  0.87918828  1
  H  H14  1  0.07905321  0.04790657  0.37918828  1
  H  H15  1  0.57905321  0.45209343  0.12081172  1
  He  He16  1  0.38607639  0.05962971  0.56714246  1
  He  He17  1  0.88607639  0.44037029  0.93285754  1
  He  He18  1  0.61392361  0.94037029  0.43285754  1
  He  He19  1  0.11392361  0.55962971  0.06714246  1
  He  He20  1  0.41719008  0.25845643  0.36205597  1
  He  He21  1  0.91719008  0.24154357  0.13794403  1
  He  He22  1  0.58280992  0.74154357  0.63794403  1
  He  He23  1  0.08280992  0.75845643  0.86205597  1
  He  He24  1  0.77316404  0.25747646  0.46876619  1
  He  He25  1  0.27316404  0.24252354  0.03123381  1
  He  He26  1  0.22683596  0.74252354  0.53123381  1
  He  He27  1  0.72683596  0.75747646  0.96876619  1
  He  He28  1  0.30712804  0.45341450  0.69137640  1
  He  He29  1  0.80712804  0.04658550  0.80862360  1
  He  He30  1  0.69287196  0.54658550  0.30862360  1
  He  He31  1  0.19287196  0.95341450  0.19137640  1
  Li  Li32  1  0.55396071  0.12494157  0.46011202  1
  Li  Li33  1  0.05396071  0.37505843  0.03988798  1
  Li  Li34  1  0.44603929  0.87505843  0.53988798  1
  Li  Li35  1  0.94603929  0.62494157  0.96011202  1
  Li  Li36  1  0.63495159  0.37782301  0.37411773  1
  Li  Li37  1  0.13495159  0.12217699  0.12588227  1
  Li  Li38  1  0.36504841  0.62217699  0.62588227  1
  Li  Li39  1  0.86504841  0.87782301  0.87411773  1
