# generated using pymatgen
data_H3He3Li
_symmetry_space_group_name_H-M   'P 1'
_cell_length_a   8.05400891
_cell_length_b   8.05400891
_cell_length_c   8.05400891
_cell_angle_alpha   60.00000000
_cell_angle_beta   60.00000000
_cell_angle_gamma   60.00000000
_symmetry_Int_Tables_number   1
_chemical_formula_structural   H3He3Li
_chemical_formula_sum   'H12 He12 Li4'
_cell_volume   369.42077866
_cell_formula_units_Z   4
loop_
 _symmetry_equiv_pos_site_id
 _symmetry_equiv_pos_as_xyz
  1  'x, y, z'
loop_
 _atom_site_type_symbol
 _atom_site_label
 _atom_site_symmetry_multiplicity
 _atom_site_fract_x
 _atom_site_fract_y
 _atom_site_fract_z
 _atom_site_occupancy
  H  H0  1  0.70808979  0.70808979  0.70808979  1
  H  H1  1  0.37573064  0.70808979  0.70808979  1
  H  H2  1  0.70808979  0.37573064  0.70808979  1
  H  H3  1  0.70808979  0.70808979  0.37573064  1
  H  H4  1  0.62426936  0.29191021  0.29191021  1
  H  H5  1  0.29191021  0.29191021  0.29191021  1
  H  H6  1  0.29191021  0.62426936  0.29191021  1
  H  H7  1  0.29191021  0.29191021  0.62426936  1
  H  H8  1  0.50000000  0.50000000  0.50000000  1
  H  H9  1  0.00000000  0.50000000  0.50000000  1
  H  H10  1  0.50000000  0.00000000  0.50000000  1
  H  H11  1  0.50000000  0.50000000  0.00000000  1
  He  He12  1  0.68513805  0.68513805  0.06486195  1
  He  He13  1  0.06486195  0.06486195  0.68513805  1
  He  He14  1  0.68513805  0.06486195  0.68513805  1
  He  He15  1  0.06486195  0.68513805  0.06486195  1
  He  He16  1  0.06486195  0.68513805  0.68513805  1
  He  He17  1  0.68513805  0.06486195  0.06486195  1
  He  He18  1  0.93513805  0.31486195  0.93513805  1
  He  He19  1  0.31486195  0.93513805  0.31486195  1
  He  He20  1  0.93513805  0.93513805  0.31486195  1
  He  He21  1  0.31486195  0.31486195  0.93513805  1
  He  He22  1  0.93513805  0.31486195  0.31486195  1
  He  He23  1  0.31486195  0.93513805  0.93513805  1
  Li  Li24  1  -0.00000000  0.00000000  -0.00000000  1
  Li  Li25  1  0.50000000  0.00000000  -0.00000000  1
  Li  Li26  1  -0.00000000  0.50000000  0.00000000  1
  Li  Li27  1  0.00000000  -0.00000000  0.50000000  1
