# generated using pymatgen
data_HHe15Li3Be3B
_symmetry_space_group_name_H-M   'P 1'
_cell_length_a   9.57907286
_cell_length_b   11.28005802
_cell_length_c   13.56140150
_cell_angle_alpha   85.96122416
_cell_angle_beta   89.12161312
_cell_angle_gamma   75.88042106
_symmetry_Int_Tables_number   1
_chemical_formula_structural   HHe15Li3Be3B
_chemical_formula_sum   'H2 He30 Li6 Be6 B2'
_cell_volume   1417.54172200
_cell_formula_units_Z   2
loop_
 _symmetry_equiv_pos_site_id
 _symmetry_equiv_pos_as_xyz
  1  'x, y, z'
loop_
 _atom_site_type_symbol
 _atom_site_label
 _atom_site_symmetry_multiplicity
 _atom_site_fract_x
 _atom_site_fract_y
 _atom_site_fract_z
 _atom_site_occupancy
  H  H0  1  0.69381201  0.23796616  0.81092472  1
  H  H1  1  0.30618799  0.76203384  0.18907528  1
  He  He2  1  0.69136823  0.08254264  0.05176812  1
  He  He3  1  0.30863177  0.91745736  0.94823188  1
  He  He4  1  0.67752220  0.36631619  0.04675872  1
  He  He5  1  0.32247780  0.63368381  0.95324128  1
  He  He6  1  0.97949047  0.17339008  0.05216033  1
  He  He7  1  0.02050953  0.82660992  0.94783967  1
  He  He8  1  0.97962583  0.33727807  0.66757419  1
  He  He9  1  0.02037417  0.66272193  0.33242581  1
  He  He10  1  0.99583954  0.05146451  0.67728225  1
  He  He11  1  0.00416046  0.94853549  0.32271775  1
  He  He12  1  0.80755129  0.23071417  0.51168241  1
  He  He13  1  0.19244871  0.76928583  0.48831759  1
  He  He14  1  0.39258223  0.16948631  0.68914887  1
  He  He15  1  0.60741777  0.83051369  0.31085113  1
  He  He16  1  0.37378689  0.45306366  0.70379568  1
  He  He17  1  0.62621311  0.54693634  0.29620432  1
  He  He18  1  0.25536946  0.30310113  0.87924396  1
  He  He19  1  0.74463054  0.69689887  0.12075604  1
  He  He20  1  0.94814766  0.69000792  0.69566939  1
  He  He21  1  0.05185234  0.30999208  0.30433061  1
  He  He22  1  0.42714045  0.80560697  0.69206326  1
  He  He23  1  0.57285955  0.19439303  0.30793674  1
  He  He24  1  0.68477527  0.58697101  0.81991466  1
  He  He25  1  0.31522473  0.41302899  0.18008534  1
  He  He26  1  0.68454825  0.60794414  0.56670981  1
  He  He27  1  0.31545175  0.39205586  0.43329019  1
  He  He28  1  0.68855369  0.88787228  0.82053392  1
  He  He29  1  0.31144631  0.11212772  0.17946608  1
  He  He30  1  0.69164614  0.90921536  0.56777261  1
  He  He31  1  0.30835386  0.09078464  0.43222739  1
  Li  Li32  1  0.80529319  0.21319094  0.87555740  1
  Li  Li33  1  0.19470681  0.78680906  0.12444260  1
  Li  Li34  1  0.71639925  0.23971009  0.71285047  1
  Li  Li35  1  0.28360075  0.76028991  0.28714953  1
  Li  Li36  1  0.55756704  0.26094684  0.84608801  1
  Li  Li37  1  0.44243296  0.73905316  0.15391199  1
  Be  Be38  1  0.78508021  0.21040213  0.99175531  1
  Be  Be39  1  0.21491979  0.78959787  0.00824469  1
  Be  Be40  1  0.86126645  0.21671809  0.65272213  1
  Be  Be41  1  0.13873355  0.78328191  0.34727787  1
  Be  Be42  1  0.41515048  0.29197281  0.78217474  1
  Be  Be43  1  0.58484952  0.70802719  0.21782526  1
  B  B44  1  0.68799812  0.74723140  0.69244228  1
  B  B45  1  0.31200188  0.25276860  0.30755772  1
