# generated using pymatgen
data_H2He
_symmetry_space_group_name_H-M   'P 1'
_cell_length_a   7.46829056
_cell_length_b   7.46829056
_cell_length_c   7.46829056
_cell_angle_alpha   115.52531550
_cell_angle_beta   115.52531550
_cell_angle_gamma   97.94256147
_symmetry_Int_Tables_number   1
_chemical_formula_structural   H2He
_chemical_formula_sum   'H8 He4'
_cell_volume   311.22028293
_cell_formula_units_Z   4
loop_
 _symmetry_equiv_pos_site_id
 _symmetry_equiv_pos_as_xyz
  1  'x, y, z'
loop_
 _atom_site_type_symbol
 _atom_site_label
 _atom_site_symmetry_multiplicity
 _atom_site_fract_x
 _atom_site_fract_y
 _atom_site_fract_z
 _atom_site_occupancy
  H  H0  1  0.62250771  0.19196707  0.43054064  1
  H  H1  1  0.26142643  0.19196707  0.06945936  1
  H  H2  1  0.19196707  0.26142643  0.56945936  1
  H  H3  1  0.19196707  0.62250771  0.93054064  1
  H  H4  1  0.73857357  0.80803293  0.93054064  1
  H  H5  1  0.37749229  0.80803293  0.56945936  1
  H  H6  1  0.80803293  0.73857357  0.43054064  1
  H  H7  1  0.80803293  0.37749229  0.06945936  1
  He  He8  1  0.34449110  0.09449110  0.25000000  1
  He  He9  1  0.09449110  0.34449110  0.75000000  1
  He  He10  1  0.65550890  0.90550890  0.75000000  1
  He  He11  1  0.90550890  0.65550890  0.25000000  1
