# generated using pymatgen
data_H16He6Li
_symmetry_space_group_name_H-M   'P 1'
_cell_length_a   8.62902506
_cell_length_b   8.62902506
_cell_length_c   8.62902506
_cell_angle_alpha   109.47122063
_cell_angle_beta   109.47122063
_cell_angle_gamma   109.47122063
_symmetry_Int_Tables_number   1
_chemical_formula_structural   H16He6Li
_chemical_formula_sum   'H16 He6 Li1'
_cell_volume   494.61046352
_cell_formula_units_Z   1
loop_
 _symmetry_equiv_pos_site_id
 _symmetry_equiv_pos_as_xyz
  1  'x, y, z'
loop_
 _atom_site_type_symbol
 _atom_site_label
 _atom_site_symmetry_multiplicity
 _atom_site_fract_x
 _atom_site_fract_y
 _atom_site_fract_z
 _atom_site_occupancy
  H  H0  1  0.50000000  -0.00000000  -0.00000000  1
  H  H1  1  0.50000000  0.50000000  0.50000000  1
  H  H2  1  -0.00000000  0.50000000  -0.00000000  1
  H  H3  1  0.00000000  0.00000000  0.50000000  1
  H  H4  1  0.65305361  -0.00000000  0.34694639  1
  H  H5  1  0.34694639  0.69389278  0.34694639  1
  H  H6  1  0.65305361  0.30610722  0.65305361  1
  H  H7  1  0.34694639  0.00000000  0.65305361  1
  H  H8  1  0.65305361  0.34694639  0.00000000  1
  H  H9  1  0.65305361  0.65305361  0.30610722  1
  H  H10  1  0.34694639  0.34694639  0.69389278  1
  H  H11  1  0.34694639  0.65305361  -0.00000000  1
  H  H12  1  0.30610722  0.65305361  0.65305361  1
  H  H13  1  0.00000000  0.65305361  0.34694639  1
  H  H14  1  0.00000000  0.34694639  0.65305361  1
  H  H15  1  0.69389278  0.34694639  0.34694639  1
  He  He16  1  0.74724679  0.00000000  0.74724679  1
  He  He17  1  0.25275321  0.00000000  0.25275321  1
  He  He18  1  0.74724679  0.74724679  -0.00000000  1
  He  He19  1  0.25275321  0.25275321  0.00000000  1
  He  He20  1  0.00000000  0.25275321  0.25275321  1
  He  He21  1  0.00000000  0.74724679  0.74724679  1
  Li  Li22  1  -0.00000000  0.00000000  -0.00000000  1
