# generated using pymatgen
data_HHeLi3
_symmetry_space_group_name_H-M   'P 1'
_cell_length_a   5.54246477
_cell_length_b   5.54246477
_cell_length_c   5.54246477
_cell_angle_alpha   48.92184823
_cell_angle_beta   48.92184823
_cell_angle_gamma   48.92184823
_symmetry_Int_Tables_number   1
_chemical_formula_structural   HHeLi3
_chemical_formula_sum   'H2 He2 Li6'
_cell_volume   88.81572479
_cell_formula_units_Z   2
loop_
 _symmetry_equiv_pos_site_id
 _symmetry_equiv_pos_as_xyz
  1  'x, y, z'
loop_
 _atom_site_type_symbol
 _atom_site_label
 _atom_site_symmetry_multiplicity
 _atom_site_fract_x
 _atom_site_fract_y
 _atom_site_fract_z
 _atom_site_occupancy
  H  H0  1  0.75000000  0.75000000  0.75000000  1
  H  H1  1  0.25000000  0.25000000  0.25000000  1
  He  He2  1  0.00000000  0.00000000  -0.00000000  1
  He  He3  1  0.50000000  0.50000000  0.50000000  1
  Li  Li4  1  0.03249719  0.46750281  0.75000000  1
  Li  Li5  1  0.46750281  0.75000000  0.03249719  1
  Li  Li6  1  0.75000000  0.03249719  0.46750281  1
  Li  Li7  1  0.96750281  0.53249719  0.25000000  1
  Li  Li8  1  0.53249719  0.25000000  0.96750281  1
  Li  Li9  1  0.25000000  0.96750281  0.53249719  1
