# generated using pymatgen
data_HHeLi3
_symmetry_space_group_name_H-M   'P 1'
_cell_length_a   10.01353468
_cell_length_b   10.01353468
_cell_length_c   6.76140511
_cell_angle_alpha   90.00000000
_cell_angle_beta   90.00000000
_cell_angle_gamma   90.00000000
_symmetry_Int_Tables_number   1
_chemical_formula_structural   HHeLi3
_chemical_formula_sum   'H8 He8 Li24'
_cell_volume   677.97201842
_cell_formula_units_Z   8
loop_
 _symmetry_equiv_pos_site_id
 _symmetry_equiv_pos_as_xyz
  1  'x, y, z'
loop_
 _atom_site_type_symbol
 _atom_site_label
 _atom_site_symmetry_multiplicity
 _atom_site_fract_x
 _atom_site_fract_y
 _atom_site_fract_z
 _atom_site_occupancy
  H  H0  1  0.28366048  0.01214982  0.14941444  1
  H  H1  1  0.71633952  0.98785018  0.14941444  1
  H  H2  1  0.48785018  0.78366048  0.64941444  1
  H  H3  1  0.51214982  0.21633952  0.64941444  1
  H  H4  1  0.21633952  0.48785018  0.35058556  1
  H  H5  1  0.78366048  0.51214982  0.35058556  1
  H  H6  1  0.01214982  0.71633952  0.85058556  1
  H  H7  1  0.98785018  0.28366048  0.85058556  1
  He  He8  1  0.00000000  -0.00000000  0.00000000  1
  He  He9  1  0.50000000  0.50000000  0.50000000  1
  He  He10  1  -0.00000000  0.00000000  0.50000000  1
  He  He11  1  0.50000000  0.50000000  0.00000000  1
  He  He12  1  0.25000000  0.75000000  0.25000000  1
  He  He13  1  0.75000000  0.25000000  0.25000000  1
  He  He14  1  0.75000000  0.75000000  0.75000000  1
  He  He15  1  0.25000000  0.25000000  0.75000000  1
  Li  Li16  1  0.16825785  0.97240106  0.34875451  1
  Li  Li17  1  0.83174215  0.02759894  0.34875451  1
  Li  Li18  1  0.52759894  0.66825785  0.84875451  1
  Li  Li19  1  0.47240106  0.33174215  0.84875451  1
  Li  Li20  1  0.33174215  0.52759894  0.15124549  1
  Li  Li21  1  0.66825785  0.47240106  0.15124549  1
  Li  Li22  1  0.97240106  0.83174215  0.65124549  1
  Li  Li23  1  0.02759894  0.16825785  0.65124549  1
  Li  Li24  1  0.40267799  0.87950103  0.20897086  1
  Li  Li25  1  0.59732201  0.12049897  0.20897086  1
  Li  Li26  1  0.62049897  0.90267799  0.70897086  1
  Li  Li27  1  0.37950103  0.09732201  0.70897086  1
  Li  Li28  1  0.09732201  0.62049897  0.29102914  1
  Li  Li29  1  0.90267799  0.37950103  0.29102914  1
  Li  Li30  1  0.87950103  0.59732201  0.79102914  1
  Li  Li31  1  0.12049897  0.40267799  0.79102914  1
  Li  Li32  1  0.19205491  0.92262197  0.95448895  1
  Li  Li33  1  0.80794509  0.07737803  0.95448895  1
  Li  Li34  1  0.57737803  0.69205491  0.45448895  1
  Li  Li35  1  0.42262197  0.30794509  0.45448895  1
  Li  Li36  1  0.30794509  0.57737803  0.54551105  1
  Li  Li37  1  0.69205491  0.42262197  0.54551105  1
  Li  Li38  1  0.92262197  0.80794509  0.04551105  1
  Li  Li39  1  0.07737803  0.19205491  0.04551105  1
