# generated using pymatgen
data_HHe3Li2
_symmetry_space_group_name_H-M   'P 1'
_cell_length_a   5.82362033
_cell_length_b   8.40504853
_cell_length_c   11.74291590
_cell_angle_alpha   73.20568744
_cell_angle_beta   90.00000000
_cell_angle_gamma   90.00000000
_symmetry_Int_Tables_number   1
_chemical_formula_structural   HHe3Li2
_chemical_formula_sum   'H4 He12 Li8'
_cell_volume   550.27419424
_cell_formula_units_Z   4
loop_
 _symmetry_equiv_pos_site_id
 _symmetry_equiv_pos_as_xyz
  1  'x, y, z'
loop_
 _atom_site_type_symbol
 _atom_site_label
 _atom_site_symmetry_multiplicity
 _atom_site_fract_x
 _atom_site_fract_y
 _atom_site_fract_z
 _atom_site_occupancy
  H  H0  1  0.58668108  0.23961047  0.14792840  1
  H  H1  1  0.08668108  0.76038953  0.35207160  1
  H  H2  1  0.41331892  0.76038953  0.85207160  1
  H  H3  1  0.91331892  0.23961047  0.64792840  1
  He  He4  1  0.15266534  0.54502630  0.17449098  1
  He  He5  1  0.65266534  0.45497370  0.32550902  1
  He  He6  1  0.84733466  0.45497370  0.82550902  1
  He  He7  1  0.34733466  0.54502630  0.67449098  1
  He  He8  1  0.37980237  0.93111135  0.07036020  1
  He  He9  1  0.87980237  0.06888865  0.42963980  1
  He  He10  1  0.62019763  0.06888865  0.92963980  1
  He  He11  1  0.12019763  0.93111135  0.57036020  1
  He  He12  1  0.88456117  0.72432189  0.08237177  1
  He  He13  1  0.38456117  0.27567811  0.41762823  1
  He  He14  1  0.11543883  0.27567811  0.91762823  1
  He  He15  1  0.61543883  0.72432189  0.58237177  1
  Li  Li16  1  0.00000000  0.00000000  0.00000000  1
  Li  Li17  1  0.50000000  0.00000000  0.50000000  1
  Li  Li18  1  0.00000000  0.50000000  0.00000000  1
  Li  Li19  1  0.50000000  0.50000000  0.50000000  1
  Li  Li20  1  0.51650772  0.66176909  0.16126206  1
  Li  Li21  1  0.01650772  0.33823091  0.33873794  1
  Li  Li22  1  0.48349228  0.33823091  0.83873794  1
  Li  Li23  1  0.98349228  0.66176909  0.66126206  1
