# generated using pymatgen
data_HHe2
_symmetry_space_group_name_H-M   'P 1'
_cell_length_a   5.47880655
_cell_length_b   8.48389082
_cell_length_c   10.25186612
_cell_angle_alpha   90.00000000
_cell_angle_beta   90.00000000
_cell_angle_gamma   90.00000000
_symmetry_Int_Tables_number   1
_chemical_formula_structural   HHe2
_chemical_formula_sum   'H4 He8'
_cell_volume   476.52310539
_cell_formula_units_Z   4
loop_
 _symmetry_equiv_pos_site_id
 _symmetry_equiv_pos_as_xyz
  1  'x, y, z'
loop_
 _atom_site_type_symbol
 _atom_site_label
 _atom_site_symmetry_multiplicity
 _atom_site_fract_x
 _atom_site_fract_y
 _atom_site_fract_z
 _atom_site_occupancy
  H  H0  1  0.25000000  0.25054578  0.89450229  1
  H  H1  1  0.75000000  0.24945422  0.39450229  1
  H  H2  1  0.75000000  0.74945422  0.10549771  1
  H  H3  1  0.25000000  0.75054578  0.60549771  1
  He  He4  1  0.25000000  0.84277519  0.92593260  1
  He  He5  1  0.75000000  0.65722481  0.42593260  1
  He  He6  1  0.75000000  0.15722481  0.07406740  1
  He  He7  1  0.25000000  0.34277519  0.57406740  1
  He  He8  1  0.25000000  0.98017313  0.31788761  1
  He  He9  1  0.75000000  0.51982687  0.81788761  1
  He  He10  1  0.75000000  0.01982687  0.68211239  1
  He  He11  1  0.25000000  0.48017313  0.18211239  1
