# generated using pymatgen
data_H2He5
_symmetry_space_group_name_H-M   'P 1'
_cell_length_a   6.42093713
_cell_length_b   6.42093713
_cell_length_c   5.28492779
_cell_angle_alpha   82.40405816
_cell_angle_beta   82.40405816
_cell_angle_gamma   46.35026189
_symmetry_Int_Tables_number   1
_chemical_formula_structural   H2He5
_chemical_formula_sum   'H4 He10'
_cell_volume   156.02046256
_cell_formula_units_Z   2
loop_
 _symmetry_equiv_pos_site_id
 _symmetry_equiv_pos_as_xyz
  1  'x, y, z'
loop_
 _atom_site_type_symbol
 _atom_site_label
 _atom_site_symmetry_multiplicity
 _atom_site_fract_x
 _atom_site_fract_y
 _atom_site_fract_z
 _atom_site_occupancy
  H  H0  1  0.18159391  0.58685594  0.09446681  1
  H  H1  1  0.41314406  0.81840609  0.40553319  1
  H  H2  1  0.81840609  0.41314406  0.90553319  1
  H  H3  1  0.58685594  0.18159391  0.59446681  1
  He  He4  1  0.97224225  0.83524060  0.40740742  1
  He  He5  1  0.16475940  0.02775775  0.09259258  1
  He  He6  1  0.02775775  0.16475940  0.59259258  1
  He  He7  1  0.83524060  0.97224225  0.90740742  1
  He  He8  1  0.38917479  0.18188934  0.29466482  1
  He  He9  1  0.81811066  0.61082521  0.20533518  1
  He  He10  1  0.61082521  0.81811066  0.70533518  1
  He  He11  1  0.18188934  0.38917479  0.79466482  1
  He  He12  1  0.58792708  0.41207292  0.25000000  1
  He  He13  1  0.41207292  0.58792708  0.75000000  1
