# generated using pymatgen
data_H3He7
_symmetry_space_group_name_H-M   'P 1'
_cell_length_a   10.34061409
_cell_length_b   10.34061119
_cell_length_c   6.57887865
_cell_angle_alpha   90.00000000
_cell_angle_beta   90.00000000
_cell_angle_gamma   120.00000930
_symmetry_Int_Tables_number   1
_chemical_formula_structural   H3He7
_chemical_formula_sum   'H6 He14'
_cell_volume   609.22119815
_cell_formula_units_Z   2
loop_
 _symmetry_equiv_pos_site_id
 _symmetry_equiv_pos_as_xyz
  1  'x, y, z'
loop_
 _atom_site_type_symbol
 _atom_site_label
 _atom_site_symmetry_multiplicity
 _atom_site_fract_x
 _atom_site_fract_y
 _atom_site_fract_z
 _atom_site_occupancy
  H  H0  1  0.18818300  0.37636600  0.31352523  1
  H  H1  1  0.62363107  0.81181796  0.31353093  1
  H  H2  1  0.18818689  0.81181796  0.31353093  1
  H  H3  1  0.81181700  0.62363400  0.81352523  1
  H  H4  1  0.37636893  0.18818204  0.81353093  1
  H  H5  1  0.81181311  0.18818204  0.81353093  1
  He  He6  1  0.66666745  0.33333490  0.03364215  1
  He  He7  1  0.33333255  0.66666510  0.53364215  1
  He  He8  1  0.87418330  0.74836660  0.24993523  1
  He  He9  1  0.25162918  0.12581864  0.24992620  1
  He  He10  1  0.87418946  0.12581864  0.24992620  1
  He  He11  1  0.12581670  0.25163340  0.74993523  1
  He  He12  1  0.74837082  0.87418136  0.74992620  1
  He  He13  1  0.12581054  0.87418136  0.74992620  1
  He  He14  1  0.46010538  0.92021076  0.06832827  1
  He  He15  1  0.07978468  0.53989330  0.06832743  1
  He  He16  1  0.46010862  0.53989330  0.06832743  1
  He  He17  1  0.53989462  0.07978924  0.56832827  1
  He  He18  1  0.92021532  0.46010670  0.56832743  1
  He  He19  1  0.53989138  0.46010670  0.56832743  1
