# generated using pymatgen
data_HHe6Li8Be2B
_symmetry_space_group_name_H-M   'P 1'
_cell_length_a   6.02866380
_cell_length_b   6.02866380
_cell_length_c   6.02866380
_cell_angle_alpha   60.00000000
_cell_angle_beta   60.00000000
_cell_angle_gamma   60.00000000
_symmetry_Int_Tables_number   1
_chemical_formula_structural   HHe6Li8Be2B
_chemical_formula_sum   'H1 He6 Li8 Be2 B1'
_cell_volume   154.93452250
_cell_formula_units_Z   1
loop_
 _symmetry_equiv_pos_site_id
 _symmetry_equiv_pos_as_xyz
  1  'x, y, z'
loop_
 _atom_site_type_symbol
 _atom_site_label
 _atom_site_symmetry_multiplicity
 _atom_site_fract_x
 _atom_site_fract_y
 _atom_site_fract_z
 _atom_site_occupancy
  H  H0  1  0.00000000  0.00000000  0.00000000  1
  He  He1  1  0.78432823  0.21567177  0.78432823  1
  He  He2  1  0.21567177  0.78432823  0.21567177  1
  He  He3  1  0.78432823  0.21567177  0.21567177  1
  He  He4  1  0.21567177  0.78432823  0.78432823  1
  He  He5  1  0.21567177  0.21567177  0.78432823  1
  He  He6  1  0.78432823  0.78432823  0.21567177  1
  Li  Li7  1  0.81975652  0.81975652  0.54073043  1
  Li  Li8  1  0.54073043  0.81975652  0.81975652  1
  Li  Li9  1  0.81975652  0.81975652  0.81975652  1
  Li  Li10  1  0.81975652  0.54073043  0.81975652  1
  Li  Li11  1  0.18024348  0.18024348  0.45926957  1
  Li  Li12  1  0.45926957  0.18024348  0.18024348  1
  Li  Li13  1  0.18024348  0.45926957  0.18024348  1
  Li  Li14  1  0.18024348  0.18024348  0.18024348  1
  Be  Be15  1  0.75000000  0.75000000  0.75000000  1
  Be  Be16  1  0.25000000  0.25000000  0.25000000  1
  B  B17  1  0.50000000  0.50000000  0.50000000  1
