# generated using pymatgen
data_H2HeLi5Be6
_symmetry_space_group_name_H-M   'P 1'
_cell_length_a   7.64147835
_cell_length_b   7.64147835
_cell_length_c   8.21866509
_cell_angle_alpha   57.93973971
_cell_angle_beta   57.93973971
_cell_angle_gamma   77.49255861
_symmetry_Int_Tables_number   1
_chemical_formula_structural   H2HeLi5Be6
_chemical_formula_sum   'H4 He2 Li10 Be12'
_cell_volume   343.26461367
_cell_formula_units_Z   2
loop_
 _symmetry_equiv_pos_site_id
 _symmetry_equiv_pos_as_xyz
  1  'x, y, z'
loop_
 _atom_site_type_symbol
 _atom_site_label
 _atom_site_symmetry_multiplicity
 _atom_site_fract_x
 _atom_site_fract_y
 _atom_site_fract_z
 _atom_site_occupancy
  H  H0  1  0.68776905  0.83190355  0.31209673  1
  H  H1  1  0.16809645  0.31223095  0.18790327  1
  H  H2  1  0.31223095  0.16809645  0.68790327  1
  H  H3  1  0.83190355  0.68776905  0.81209673  1
  He  He4  1  0.31122276  0.68877724  0.25000000  1
  He  He5  1  0.68877724  0.31122276  0.75000000  1
  Li  Li6  1  0.07079561  0.70513796  0.96029966  1
  Li  Li7  1  0.29486204  0.92920439  0.53970034  1
  Li  Li8  1  0.92920439  0.29486204  0.03970034  1
  Li  Li9  1  0.70513796  0.07079561  0.46029966  1
  Li  Li10  1  0.73542291  0.47015580  0.26844464  1
  Li  Li11  1  0.52984420  0.26457709  0.23155536  1
  Li  Li12  1  0.26457709  0.52984420  0.73155536  1
  Li  Li13  1  0.47015580  0.73542291  0.76844464  1
  Li  Li14  1  0.00000000  -0.00000000  0.00000000  1
  Li  Li15  1  0.00000000  -0.00000000  0.50000000  1
  Be  Be16  1  0.50440087  0.73143603  0.50802592  1
  Be  Be17  1  0.26856397  0.49559913  0.99197408  1
  Be  Be18  1  0.49559913  0.26856397  0.49197408  1
  Be  Be19  1  0.73143603  0.50440087  0.00802592  1
  Be  Be20  1  0.73607704  0.04457069  0.21570314  1
  Be  Be21  1  0.95542931  0.26392296  0.28429686  1
  Be  Be22  1  0.26392296  0.95542931  0.78429686  1
  Be  Be23  1  0.04457069  0.73607704  0.71570314  1
  Be  Be24  1  0.83133275  0.73005127  0.20284919  1
  Be  Be25  1  0.26994873  0.16866725  0.29715081  1
  Be  Be26  1  0.16866725  0.26994873  0.79715081  1
  Be  Be27  1  0.73005127  0.83133275  0.70284919  1
