# generated using pymatgen
data_HHe2Li4Be
_symmetry_space_group_name_H-M   'P 1'
_cell_length_a   6.26067346
_cell_length_b   8.89758512
_cell_length_c   9.51363750
_cell_angle_alpha   90.00000000
_cell_angle_beta   90.00000000
_cell_angle_gamma   90.00000000
_symmetry_Int_Tables_number   1
_chemical_formula_structural   HHe2Li4Be
_chemical_formula_sum   'H4 He8 Li16 Be4'
_cell_volume   529.95598734
_cell_formula_units_Z   4
loop_
 _symmetry_equiv_pos_site_id
 _symmetry_equiv_pos_as_xyz
  1  'x, y, z'
loop_
 _atom_site_type_symbol
 _atom_site_label
 _atom_site_symmetry_multiplicity
 _atom_site_fract_x
 _atom_site_fract_y
 _atom_site_fract_z
 _atom_site_occupancy
  H  H0  1  0.00000000  0.97147709  0.35015414  1
  H  H1  1  0.00000000  0.02852291  0.64984586  1
  H  H2  1  0.00000000  0.47147709  0.14984586  1
  H  H3  1  0.00000000  0.52852291  0.85015414  1
  He  He4  1  0.21331661  0.74968669  0.03403727  1
  He  He5  1  0.21331661  0.25031331  0.96596273  1
  He  He6  1  0.78668339  0.24968669  0.46596273  1
  He  He7  1  0.78668339  0.75031331  0.53403727  1
  He  He8  1  0.78668339  0.25031331  0.96596273  1
  He  He9  1  0.78668339  0.74968669  0.03403727  1
  He  He10  1  0.21331661  0.75031331  0.53403727  1
  He  He11  1  0.21331661  0.24968669  0.46596273  1
  Li  Li12  1  0.29103947  0.95298529  0.19746866  1
  Li  Li13  1  0.29103947  0.04701471  0.80253134  1
  Li  Li14  1  0.70896053  0.45298529  0.30253134  1
  Li  Li15  1  0.70896053  0.54701471  0.69746866  1
  Li  Li16  1  0.70896053  0.04701471  0.80253134  1
  Li  Li17  1  0.70896053  0.95298529  0.19746866  1
  Li  Li18  1  0.29103947  0.54701471  0.69746866  1
  Li  Li19  1  0.29103947  0.45298529  0.30253134  1
  Li  Li20  1  0.50000000  0.61798886  0.13635130  1
  Li  Li21  1  0.50000000  0.38201114  0.86364870  1
  Li  Li22  1  0.50000000  0.11798886  0.36364870  1
  Li  Li23  1  0.50000000  0.88201114  0.63635130  1
  Li  Li24  1  0.50000000  0.67182706  0.40228198  1
  Li  Li25  1  0.50000000  0.32817294  0.59771802  1
  Li  Li26  1  0.50000000  0.17182706  0.09771802  1
  Li  Li27  1  0.50000000  0.82817294  0.90228198  1
  Be  Be28  1  0.50000000  0.54508872  0.28623913  1
  Be  Be29  1  0.50000000  0.45491128  0.71376087  1
  Be  Be30  1  0.50000000  0.04508872  0.21376087  1
  Be  Be31  1  0.50000000  0.95491128  0.78623913  1
