# generated using pymatgen
data_H4He
_symmetry_space_group_name_H-M   'P 1'
_cell_length_a   5.18166325
_cell_length_b   5.18166325
_cell_length_c   5.18166325
_cell_angle_alpha   99.30194829
_cell_angle_beta   99.30194829
_cell_angle_gamma   132.58826901
_symmetry_Int_Tables_number   1
_chemical_formula_structural   H4He
_chemical_formula_sum   'H4 He1'
_cell_volume   93.78650619
_cell_formula_units_Z   1
loop_
 _symmetry_equiv_pos_site_id
 _symmetry_equiv_pos_as_xyz
  1  'x, y, z'
loop_
 _atom_site_type_symbol
 _atom_site_label
 _atom_site_symmetry_multiplicity
 _atom_site_fract_x
 _atom_site_fract_y
 _atom_site_fract_z
 _atom_site_occupancy
  H  H0  1  0.20011826  0.59999428  0.80011254  1
  H  H1  1  0.79988174  0.40000572  0.19988746  1
  H  H2  1  0.59999428  0.79988174  0.39987602  1
  H  H3  1  0.40000572  0.20011826  0.60012398  1
  He  He4  1  -0.00000000  -0.00000000  -0.00000000  1
