# generated using pymatgen
data_H2He3
_symmetry_space_group_name_H-M   'P 1'
_cell_length_a   3.99359211
_cell_length_b   10.12326610
_cell_length_c   17.53426251
_cell_angle_alpha   81.39286418
_cell_angle_beta   90.00000000
_cell_angle_gamma   90.00000000
_symmetry_Int_Tables_number   1
_chemical_formula_structural   H2He3
_chemical_formula_sum   'H12 He18'
_cell_volume   700.89502717
_cell_formula_units_Z   6
loop_
 _symmetry_equiv_pos_site_id
 _symmetry_equiv_pos_as_xyz
  1  'x, y, z'
loop_
 _atom_site_type_symbol
 _atom_site_label
 _atom_site_symmetry_multiplicity
 _atom_site_fract_x
 _atom_site_fract_y
 _atom_site_fract_z
 _atom_site_occupancy
  H  H0  1  0.75000000  0.81108528  0.02088443  1
  H  H1  1  0.25000000  0.18891472  0.97911557  1
  H  H2  1  0.75000000  0.87619004  0.42992856  1
  H  H3  1  0.25000000  0.12380996  0.57007144  1
  H  H4  1  0.75000000  0.16903498  0.78145080  1
  H  H5  1  0.25000000  0.83096502  0.21854920  1
  H  H6  1  0.75000000  0.81107802  0.72064141  1
  H  H7  1  0.25000000  0.18892198  0.27935859  1
  H  H8  1  0.75000000  0.51398103  0.39939341  1
  H  H9  1  0.25000000  0.48601897  0.60060659  1
  H  H10  1  0.75000000  0.45149281  0.11471967  1
  H  H11  1  0.25000000  0.54850719  0.88528033  1
  He  He12  1  0.75000000  0.94739973  0.57530566  1
  He  He13  1  0.25000000  0.05260027  0.42469434  1
  He  He14  1  0.75000000  0.73104451  0.87300163  1
  He  He15  1  0.25000000  0.26895549  0.12699837  1
  He  He16  1  0.75000000  0.38473263  0.96720474  1
  He  He17  1  0.25000000  0.61526737  0.03279526  1
  He  He18  1  0.75000000  0.36358807  0.28180790  1
  He  He19  1  0.25000000  0.63641193  0.71819210  1
  He  He20  1  0.75000000  0.99367260  0.26822006  1
  He  He21  1  0.25000000  0.00632740  0.73177994  1
  He  He22  1  0.75000000  0.28888458  0.63102518  1
  He  He23  1  0.25000000  0.71111542  0.36897482  1
  He  He24  1  0.75000000  0.04836466  0.92422574  1
  He  He25  1  0.25000000  0.95163534  0.07577426  1
  He  He26  1  0.75000000  0.68195742  0.18188592  1
  He  He27  1  0.25000000  0.31804258  0.81811408  1
  He  He28  1  0.75000000  0.63236413  0.53165145  1
  He  He29  1  0.25000000  0.36763587  0.46834855  1
