# generated using pymatgen
data_HHeLiBe4
_symmetry_space_group_name_H-M   'P 1'
_cell_length_a   6.77925690
_cell_length_b   6.77925690
_cell_length_c   5.53718676
_cell_angle_alpha   90.00000000
_cell_angle_beta   90.00000000
_cell_angle_gamma   90.00000000
_symmetry_Int_Tables_number   1
_chemical_formula_structural   HHeLiBe4
_chemical_formula_sum   'H2 He2 Li2 Be8'
_cell_volume   254.47982399
_cell_formula_units_Z   2
loop_
 _symmetry_equiv_pos_site_id
 _symmetry_equiv_pos_as_xyz
  1  'x, y, z'
loop_
 _atom_site_type_symbol
 _atom_site_label
 _atom_site_symmetry_multiplicity
 _atom_site_fract_x
 _atom_site_fract_y
 _atom_site_fract_z
 _atom_site_occupancy
  H  H0  1  0.25000000  0.25000000  0.67317137  1
  H  H1  1  0.75000000  0.75000000  0.32682863  1
  He  He2  1  0.25000000  0.25000000  0.27010162  1
  He  He3  1  0.75000000  0.75000000  0.72989838  1
  Li  Li4  1  0.75000000  0.25000000  0.00000000  1
  Li  Li5  1  0.25000000  0.75000000  -0.00000000  1
  Be  Be6  1  0.25000000  0.96477029  0.18803523  1
  Be  Be7  1  0.25000000  0.53522971  0.18803523  1
  Be  Be8  1  0.53522971  0.25000000  0.18803523  1
  Be  Be9  1  0.96477029  0.25000000  0.18803523  1
  Be  Be10  1  0.75000000  0.46477029  0.81196477  1
  Be  Be11  1  0.75000000  0.03522971  0.81196477  1
  Be  Be12  1  0.46477029  0.75000000  0.81196477  1
  Be  Be13  1  0.03522971  0.75000000  0.81196477  1
