# generated using pymatgen
data_HHe4Li4
_symmetry_space_group_name_H-M   'P 1'
_cell_length_a   12.41354214
_cell_length_b   12.41354214
_cell_length_c   12.41354214
_cell_angle_alpha   90.00000000
_cell_angle_beta   90.00000000
_cell_angle_gamma   90.00000000
_symmetry_Int_Tables_number   1
_chemical_formula_structural   HHe4Li4
_chemical_formula_sum   'H8 He32 Li32'
_cell_volume   1912.87754180
_cell_formula_units_Z   8
loop_
 _symmetry_equiv_pos_site_id
 _symmetry_equiv_pos_as_xyz
  1  'x, y, z'
loop_
 _atom_site_type_symbol
 _atom_site_label
 _atom_site_symmetry_multiplicity
 _atom_site_fract_x
 _atom_site_fract_y
 _atom_site_fract_z
 _atom_site_occupancy
  H  H0  1  0.60089549  0.60089549  0.39910451  1
  H  H1  1  0.89910451  0.39910451  0.89910451  1
  H  H2  1  0.39910451  0.10089549  0.10089549  1
  H  H3  1  0.10089549  0.89910451  0.60089549  1
  H  H4  1  0.39910451  0.39910451  0.60089549  1
  H  H5  1  0.10089549  0.60089549  0.10089549  1
  H  H6  1  0.60089549  0.89910451  0.89910451  1
  H  H7  1  0.89910451  0.10089549  0.39910451  1
  He  He8  1  0.72426479  0.72426479  0.27573521  1
  He  He9  1  0.77573521  0.27573521  0.77573521  1
  He  He10  1  0.27573521  0.22426479  0.22426479  1
  He  He11  1  0.22426479  0.77573521  0.72426479  1
  He  He12  1  0.27573521  0.27573521  0.72426479  1
  He  He13  1  0.22426479  0.72426479  0.22426479  1
  He  He14  1  0.72426479  0.77573521  0.77573521  1
  He  He15  1  0.77573521  0.22426479  0.27573521  1
  He  He16  1  0.72613159  0.96529104  0.06081340  1
  He  He17  1  0.77386841  0.03470896  0.56081340  1
  He  He18  1  0.27386841  0.46529104  0.43918660  1
  He  He19  1  0.22613159  0.53470896  0.93918660  1
  He  He20  1  0.93918660  0.72613159  0.03470896  1
  He  He21  1  0.43918660  0.77386841  0.96529104  1
  He  He22  1  0.56081340  0.27386841  0.53470896  1
  He  He23  1  0.06081340  0.22613159  0.46529104  1
  He  He24  1  0.96529104  0.93918660  0.27386841  1
  He  He25  1  0.03470896  0.43918660  0.22613159  1
  He  He26  1  0.46529104  0.56081340  0.72613159  1
  He  He27  1  0.53470896  0.06081340  0.77386841  1
  He  He28  1  0.27386841  0.03470896  0.93918660  1
  He  He29  1  0.22613159  0.96529104  0.43918660  1
  He  He30  1  0.72613159  0.53470896  0.56081340  1
  He  He31  1  0.77386841  0.46529104  0.06081340  1
  He  He32  1  0.06081340  0.27386841  0.96529104  1
  He  He33  1  0.56081340  0.22613159  0.03470896  1
  He  He34  1  0.43918660  0.72613159  0.46529104  1
  He  He35  1  0.93918660  0.77386841  0.53470896  1
  He  He36  1  0.03470896  0.06081340  0.72613159  1
  He  He37  1  0.96529104  0.56081340  0.77386841  1
  He  He38  1  0.53470896  0.43918660  0.27386841  1
  He  He39  1  0.46529104  0.93918660  0.22613159  1
  Li  Li40  1  0.66940122  0.92282312  0.25278720  1
  Li  Li41  1  0.83059878  0.07717688  0.75278720  1
  Li  Li42  1  0.33059878  0.42282312  0.24721280  1
  Li  Li43  1  0.16940122  0.57717688  0.74721280  1
  Li  Li44  1  0.74721280  0.66940122  0.07717688  1
  Li  Li45  1  0.24721280  0.83059878  0.92282312  1
  Li  Li46  1  0.75278720  0.33059878  0.57717688  1
  Li  Li47  1  0.25278720  0.16940122  0.42282312  1
  Li  Li48  1  0.92282312  0.74721280  0.33059878  1
  Li  Li49  1  0.07717688  0.24721280  0.16940122  1
  Li  Li50  1  0.42282312  0.75278720  0.66940122  1
  Li  Li51  1  0.57717688  0.25278720  0.83059878  1
  Li  Li52  1  0.33059878  0.07717688  0.74721280  1
  Li  Li53  1  0.16940122  0.92282312  0.24721280  1
  Li  Li54  1  0.66940122  0.57717688  0.75278720  1
  Li  Li55  1  0.83059878  0.42282312  0.25278720  1
  Li  Li56  1  0.25278720  0.33059878  0.92282312  1
  Li  Li57  1  0.75278720  0.16940122  0.07717688  1
  Li  Li58  1  0.24721280  0.66940122  0.42282312  1
  Li  Li59  1  0.74721280  0.83059878  0.57717688  1
  Li  Li60  1  0.07717688  0.25278720  0.66940122  1
  Li  Li61  1  0.92282312  0.75278720  0.83059878  1
  Li  Li62  1  0.57717688  0.24721280  0.33059878  1
  Li  Li63  1  0.42282312  0.74721280  0.16940122  1
  Li  Li64  1  0.92373073  0.92373073  0.07626927  1
  Li  Li65  1  0.57626927  0.07626927  0.57626927  1
  Li  Li66  1  0.07626927  0.42373073  0.42373073  1
  Li  Li67  1  0.42373073  0.57626927  0.92373073  1
  Li  Li68  1  0.07626927  0.07626927  0.92373073  1
  Li  Li69  1  0.42373073  0.92373073  0.42373073  1
  Li  Li70  1  0.92373073  0.57626927  0.57626927  1
  Li  Li71  1  0.57626927  0.42373073  0.07626927  1
