# generated using pymatgen
data_HHe9Li2Be3
_symmetry_space_group_name_H-M   'P 1'
_cell_length_a   10.05985312
_cell_length_b   10.05985312
_cell_length_c   7.60561097
_cell_angle_alpha   76.52278395
_cell_angle_beta   76.52278395
_cell_angle_gamma   131.22463578
_symmetry_Int_Tables_number   1
_chemical_formula_structural   HHe9Li2Be3
_chemical_formula_sum   'H2 He18 Li4 Be6'
_cell_volume   477.87873862
_cell_formula_units_Z   2
loop_
 _symmetry_equiv_pos_site_id
 _symmetry_equiv_pos_as_xyz
  1  'x, y, z'
loop_
 _atom_site_type_symbol
 _atom_site_label
 _atom_site_symmetry_multiplicity
 _atom_site_fract_x
 _atom_site_fract_y
 _atom_site_fract_z
 _atom_site_occupancy
  H  H0  1  0.00188929  0.00951728  0.97137695  1
  H  H1  1  0.00951728  0.00188929  0.47137695  1
  He  He2  1  0.25035015  0.47853131  0.94836416  1
  He  He3  1  0.47853131  0.25035015  0.44836416  1
  He  He4  1  0.73073137  0.96574904  0.95106404  1
  He  He5  1  0.96574904  0.73073137  0.45106404  1
  He  He6  1  0.07383014  0.11912279  0.81748673  1
  He  He7  1  0.11912279  0.07383014  0.31748673  1
  He  He8  1  0.12464267  0.54660835  0.74628778  1
  He  He9  1  0.54660835  0.12464267  0.24628778  1
  He  He10  1  0.42387615  0.83323617  0.74741227  1
  He  He11  1  0.83323617  0.42387615  0.24741227  1
  He  He12  1  0.84622703  0.89553501  0.70609325  1
  He  He13  1  0.89553501  0.84622703  0.20609325  1
  He  He14  1  0.46241097  0.68302223  0.56100760  1
  He  He15  1  0.68302223  0.46241097  0.06100760  1
  He  He16  1  0.01307658  0.24279931  0.57345886  1
  He  He17  1  0.24279931  0.01307658  0.07345886  1
  He  He18  1  0.68393441  0.27863782  0.74607210  1
  He  He19  1  0.27863782  0.68393441  0.24607210  1
  Li  Li20  1  0.31606009  0.63349081  0.75233463  1
  Li  Li21  1  0.63349081  0.31606009  0.25233463  1
  Li  Li22  1  0.90547792  0.05167245  0.76048599  1
  Li  Li23  1  0.05167245  0.90547792  0.26048599  1
  Be  Be24  1  0.12842324  0.81751926  0.77504071  1
  Be  Be25  1  0.81751926  0.12842324  0.27504071  1
  Be  Be26  1  0.53217045  0.45282237  0.78870226  1
  Be  Be27  1  0.45282237  0.53217045  0.28870226  1
  Be  Be28  1  0.48523981  0.98539550  0.00221267  1
  Be  Be29  1  0.98539550  0.48523981  0.50221267  1
