# generated using pymatgen
data_HHeLi2
_symmetry_space_group_name_H-M   'P 1'
_cell_length_a   18.82278729
_cell_length_b   18.82278729
_cell_length_c   6.62148919
_cell_angle_alpha   85.21512754
_cell_angle_beta   85.21512754
_cell_angle_gamma   19.83777182
_symmetry_Int_Tables_number   1
_chemical_formula_structural   HHeLi2
_chemical_formula_sum   'H8 He8 Li16'
_cell_volume   793.26639374
_cell_formula_units_Z   8
loop_
 _symmetry_equiv_pos_site_id
 _symmetry_equiv_pos_as_xyz
  1  'x, y, z'
loop_
 _atom_site_type_symbol
 _atom_site_label
 _atom_site_symmetry_multiplicity
 _atom_site_fract_x
 _atom_site_fract_y
 _atom_site_fract_z
 _atom_site_occupancy
  H  H0  1  0.37787193  0.37787193  0.32947255  1
  H  H1  1  0.62212807  0.62212807  0.67052745  1
  H  H2  1  0.12175660  0.62225534  0.66965314  1
  H  H3  1  0.37774466  0.87824340  0.33034686  1
  H  H4  1  0.87824340  0.37774466  0.33034686  1
  H  H5  1  0.62225534  0.12175660  0.66965314  1
  H  H6  1  0.87786218  0.87786218  0.32999624  1
  H  H7  1  0.12213782  0.12213782  0.67000376  1
  He  He8  1  0.82812358  0.82812358  0.58823146  1
  He  He9  1  0.17187642  0.17187642  0.41176854  1
  He  He10  1  0.17175553  0.67174256  0.41127020  1
  He  He11  1  0.32825744  0.82824447  0.58872980  1
  He  He12  1  0.82824447  0.32825744  0.58872980  1
  He  He13  1  0.67174256  0.17175553  0.41127020  1
  He  He14  1  0.32817767  0.32817767  0.58825631  1
  He  He15  1  0.67182233  0.67182233  0.41174369  1
  Li  Li16  1  0.03059325  0.48992718  0.20543663  1
  Li  Li17  1  0.51007282  0.96940675  0.79456337  1
  Li  Li18  1  0.96940675  0.51007282  0.79456337  1
  Li  Li19  1  0.48992718  0.03059325  0.20543663  1
  Li  Li20  1  0.41358385  0.41358385  0.92316487  1
  Li  Li21  1  0.58641615  0.58641615  0.07683513  1
  Li  Li22  1  0.08652646  0.58712414  0.07587542  1
  Li  Li23  1  0.41287586  0.91347354  0.92412458  1
  Li  Li24  1  0.91347354  0.41287586  0.92412458  1
  Li  Li25  1  0.58712414  0.08652646  0.07587542  1
  Li  Li26  1  0.91367033  0.91367033  0.92308646  1
  Li  Li27  1  0.08632967  0.08632967  0.07691354  1
  Li  Li28  1  0.48978930  0.48978930  0.79508638  1
  Li  Li29  1  0.51021070  0.51021070  0.20491362  1
  Li  Li30  1  0.98986470  0.98986470  0.79496765  1
  Li  Li31  1  0.01013530  0.01013530  0.20503235  1
