# generated using pymatgen
data_H3He
_symmetry_space_group_name_H-M   'P 1'
_cell_length_a   5.72983277
_cell_length_b   5.72983277
_cell_length_c   5.72983277
_cell_angle_alpha   109.47122063
_cell_angle_beta   109.47122063
_cell_angle_gamma   109.47122063
_symmetry_Int_Tables_number   1
_chemical_formula_structural   H3He
_chemical_formula_sum   'H12 He4'
_cell_volume   144.81179932
_cell_formula_units_Z   4
loop_
 _symmetry_equiv_pos_site_id
 _symmetry_equiv_pos_as_xyz
  1  'x, y, z'
loop_
 _atom_site_type_symbol
 _atom_site_label
 _atom_site_symmetry_multiplicity
 _atom_site_fract_x
 _atom_site_fract_y
 _atom_site_fract_z
 _atom_site_occupancy
  H  H0  1  0.72503746  0.11015899  0.61487846  1
  H  H1  1  0.49528053  0.11015899  0.38512154  1
  H  H2  1  0.50471947  0.88984101  0.61487846  1
  H  H3  1  0.27496254  0.88984101  0.38512154  1
  H  H4  1  0.38512154  0.27496254  0.88984101  1
  H  H5  1  0.61487846  0.50471947  0.88984101  1
  H  H6  1  0.38512154  0.49528053  0.11015899  1
  H  H7  1  0.61487846  0.72503746  0.11015899  1
  H  H8  1  0.88984101  0.61487846  0.50471947  1
  H  H9  1  0.88984101  0.38512154  0.27496254  1
  H  H10  1  0.11015899  0.61487846  0.72503746  1
  H  H11  1  0.11015899  0.38512154  0.49528053  1
  He  He12  1  0.00000000  0.00000000  0.50000000  1
  He  He13  1  0.50000000  0.50000000  0.50000000  1
  He  He14  1  0.50000000  -0.00000000  0.00000000  1
  He  He15  1  0.00000000  0.50000000  0.00000000  1
