# generated using pymatgen
data_H9He2LiBe2
_symmetry_space_group_name_H-M   'P 1'
_cell_length_a   7.77408345
_cell_length_b   7.77408345
_cell_length_c   7.77408345
_cell_angle_alpha   109.41441081
_cell_angle_beta   109.41441081
_cell_angle_gamma   109.58490012
_symmetry_Int_Tables_number   1
_chemical_formula_structural   H9He2LiBe2
_chemical_formula_sum   'H18 He4 Li2 Be4'
_cell_volume   361.67994014
_cell_formula_units_Z   2
loop_
 _symmetry_equiv_pos_site_id
 _symmetry_equiv_pos_as_xyz
  1  'x, y, z'
loop_
 _atom_site_type_symbol
 _atom_site_label
 _atom_site_symmetry_multiplicity
 _atom_site_fract_x
 _atom_site_fract_y
 _atom_site_fract_z
 _atom_site_occupancy
  H  H0  1  0.02089210  0.33104251  0.03888796  1
  H  H1  1  0.29215455  0.98200414  0.96111204  1
  H  H2  1  0.33104251  0.29215455  0.31015041  1
  H  H3  1  0.98200414  0.02089210  0.68984959  1
  H  H4  1  0.79215455  0.83104251  0.31015041  1
  H  H5  1  0.52089210  0.48200414  0.68984959  1
  H  H6  1  0.48200414  0.79215455  0.96111204  1
  H  H7  1  0.83104251  0.52089210  0.03888796  1
  H  H8  1  0.31247208  0.81247208  0.19629446  1
  H  H9  1  0.61617763  0.11617763  0.80370554  1
  H  H10  1  0.81247208  0.61617763  0.50000000  1
  H  H11  1  0.11617763  0.31247208  0.50000000  1
  H  H12  1  0.42514611  0.42514611  -0.00000000  1
  H  H13  1  0.92514611  0.92514611  -0.00000000  1
  H  H14  1  0.13389954  0.83896612  0.50000000  1
  H  H15  1  0.33896612  0.63389954  0.50000000  1
  H  H16  1  0.83896612  0.33896612  0.70506659  1
  H  H17  1  0.63389954  0.13389954  0.29493341  1
  He  He18  1  0.92674856  0.81450136  0.50000000  1
  He  He19  1  0.31450136  0.42674856  0.50000000  1
  He  He20  1  0.81450136  0.31450136  0.88775280  1
  He  He21  1  0.42674856  0.92674856  0.11224720  1
  Li  Li22  1  0.10636461  0.10636461  -0.00000000  1
  Li  Li23  1  0.60636461  0.60636461  0.00000000  1
  Be  Be24  1  0.14666146  0.64666146  0.26633225  1
  Be  Be25  1  0.38032922  0.88032922  0.73366775  1
  Be  Be26  1  0.64666146  0.38032922  0.50000000  1
  Be  Be27  1  0.88032922  0.14666146  0.50000000  1
