# generated using pymatgen
data_H6He23
_symmetry_space_group_name_H-M   'P 1'
_cell_length_a   8.87787644
_cell_length_b   8.87787644
_cell_length_c   8.87787644
_cell_angle_alpha   60.00000000
_cell_angle_beta   60.00000000
_cell_angle_gamma   60.00000000
_symmetry_Int_Tables_number   1
_chemical_formula_structural   H6He23
_chemical_formula_sum   'H6 He23'
_cell_volume   494.78017719
_cell_formula_units_Z   1
loop_
 _symmetry_equiv_pos_site_id
 _symmetry_equiv_pos_as_xyz
  1  'x, y, z'
loop_
 _atom_site_type_symbol
 _atom_site_label
 _atom_site_symmetry_multiplicity
 _atom_site_fract_x
 _atom_site_fract_y
 _atom_site_fract_z
 _atom_site_occupancy
  H  H0  1  0.79226925  0.20773075  0.20773075  1
  H  H1  1  0.20773075  0.79226925  0.79226925  1
  H  H2  1  0.20773075  0.20773075  0.79226925  1
  H  H3  1  0.79226925  0.79226925  0.20773075  1
  H  H4  1  0.79226925  0.20773075  0.79226925  1
  H  H5  1  0.20773075  0.79226925  0.20773075  1
  He  He6  1  0.50000000  0.50000000  0.50000000  1
  He  He7  1  -0.00000000  0.50000000  0.50000000  1
  He  He8  1  0.50000000  0.00000000  -0.00000000  1
  He  He9  1  0.50000000  0.50000000  -0.00000000  1
  He  He10  1  0.00000000  -0.00000000  0.50000000  1
  He  He11  1  -0.00000000  0.50000000  0.00000000  1
  He  He12  1  0.50000000  -0.00000000  0.50000000  1
  He  He13  1  0.61953162  0.14140515  0.61953162  1
  He  He14  1  0.61953162  0.61953162  0.61953162  1
  He  He15  1  0.14140515  0.61953162  0.61953162  1
  He  He16  1  0.61953162  0.61953162  0.14140515  1
  He  He17  1  0.38046838  0.38046838  0.38046838  1
  He  He18  1  0.38046838  0.85859485  0.38046838  1
  He  He19  1  0.85859485  0.38046838  0.38046838  1
  He  He20  1  0.38046838  0.38046838  0.85859485  1
  He  He21  1  0.82466173  0.52601480  0.82466173  1
  He  He22  1  0.82466173  0.82466173  0.82466173  1
  He  He23  1  0.52601480  0.82466173  0.82466173  1
  He  He24  1  0.82466173  0.82466173  0.52601480  1
  He  He25  1  0.17533827  0.17533827  0.17533827  1
  He  He26  1  0.17533827  0.47398520  0.17533827  1
  He  He27  1  0.47398520  0.17533827  0.17533827  1
  He  He28  1  0.17533827  0.17533827  0.47398520  1
