# generated using pymatgen
data_HHeLi3
_symmetry_space_group_name_H-M   'P 1'
_cell_length_a   5.80071713
_cell_length_b   5.80071713
_cell_length_c   14.60304983
_cell_angle_alpha   89.10711020
_cell_angle_beta   89.10711020
_cell_angle_gamma   119.74693361
_symmetry_Int_Tables_number   1
_chemical_formula_structural   HHeLi3
_chemical_formula_sum   'H6 He6 Li18'
_cell_volume   426.41256271
_cell_formula_units_Z   6
loop_
 _symmetry_equiv_pos_site_id
 _symmetry_equiv_pos_as_xyz
  1  'x, y, z'
loop_
 _atom_site_type_symbol
 _atom_site_label
 _atom_site_symmetry_multiplicity
 _atom_site_fract_x
 _atom_site_fract_y
 _atom_site_fract_z
 _atom_site_occupancy
  H  H0  1  0.00454565  0.99545435  0.75000000  1
  H  H1  1  0.99545435  0.00454565  0.25000000  1
  H  H2  1  0.67798367  0.34437604  0.90526967  1
  H  H3  1  0.65562396  0.32201633  0.59473033  1
  H  H4  1  0.32201633  0.65562396  0.09473033  1
  H  H5  1  0.34437604  0.67798367  0.40526967  1
  He  He6  1  -0.00000000  0.00000000  0.00000000  1
  He  He7  1  0.00000000  0.00000000  0.50000000  1
  He  He8  1  0.65308146  0.32472268  0.15404563  1
  He  He9  1  0.67527732  0.34691854  0.34595437  1
  He  He10  1  0.34691854  0.67527732  0.84595437  1
  He  He11  1  0.32472268  0.65308146  0.65404563  1
  Li  Li12  1  0.48693915  0.51306085  0.75000000  1
  Li  Li13  1  0.51306085  0.48693915  0.25000000  1
  Li  Li14  1  0.48589590  0.95479046  0.74134528  1
  Li  Li15  1  0.04520954  0.51410410  0.75865472  1
  Li  Li16  1  0.51410410  0.04520954  0.25865472  1
  Li  Li17  1  0.95479046  0.48589590  0.24134528  1
  Li  Li18  1  0.18011738  0.37873426  0.94610827  1
  Li  Li19  1  0.62126574  0.81988262  0.55389173  1
  Li  Li20  1  0.81988262  0.62126574  0.05389173  1
  Li  Li21  1  0.37873426  0.18011738  0.44610827  1
  Li  Li22  1  0.09632727  0.79640482  0.59192818  1
  Li  Li23  1  0.20359518  0.90367273  0.90807182  1
  Li  Li24  1  0.90367273  0.20359518  0.40807182  1
  Li  Li25  1  0.79640482  0.09632727  0.09192818  1
  Li  Li26  1  0.70774797  0.88484493  0.91044858  1
  Li  Li27  1  0.11515507  0.29225203  0.58955142  1
  Li  Li28  1  0.29225203  0.11515507  0.08955142  1
  Li  Li29  1  0.88484493  0.70774797  0.41044858  1
