# generated using pymatgen
data_H6He4Li
_symmetry_space_group_name_H-M   'P 1'
_cell_length_a   6.53817865
_cell_length_b   6.53817865
_cell_length_c   4.68110698
_cell_angle_alpha   90.00000000
_cell_angle_beta   90.00000000
_cell_angle_gamma   90.00000000
_symmetry_Int_Tables_number   1
_chemical_formula_structural   H6He4Li
_chemical_formula_sum   'H12 He8 Li2'
_cell_volume   200.10693133
_cell_formula_units_Z   2
loop_
 _symmetry_equiv_pos_site_id
 _symmetry_equiv_pos_as_xyz
  1  'x, y, z'
loop_
 _atom_site_type_symbol
 _atom_site_label
 _atom_site_symmetry_multiplicity
 _atom_site_fract_x
 _atom_site_fract_y
 _atom_site_fract_z
 _atom_site_occupancy
  H  H0  1  0.46849156  0.53150844  0.75000000  1
  H  H1  1  0.03150844  0.96849156  0.75000000  1
  H  H2  1  0.96849156  0.46849156  0.25000000  1
  H  H3  1  0.53150844  0.03150844  0.25000000  1
  H  H4  1  0.53150844  0.46849156  0.25000000  1
  H  H5  1  0.96849156  0.03150844  0.25000000  1
  H  H6  1  0.03150844  0.53150844  0.75000000  1
  H  H7  1  0.46849156  0.96849156  0.75000000  1
  H  H8  1  0.25000000  0.25000000  0.19835900  1
  H  H9  1  0.25000000  0.25000000  0.69835900  1
  H  H10  1  0.75000000  0.75000000  0.80164100  1
  H  H11  1  0.75000000  0.75000000  0.30164100  1
  He  He12  1  0.25000000  0.49028063  0.46084022  1
  He  He13  1  0.25000000  0.00971937  0.46084022  1
  He  He14  1  0.00971937  0.25000000  0.96084022  1
  He  He15  1  0.49028063  0.25000000  0.96084022  1
  He  He16  1  0.75000000  0.99028063  0.53915978  1
  He  He17  1  0.75000000  0.50971937  0.53915978  1
  He  He18  1  0.99028063  0.75000000  0.03915978  1
  He  He19  1  0.50971937  0.75000000  0.03915978  1
  Li  Li20  1  0.75000000  0.25000000  0.75000000  1
  Li  Li21  1  0.25000000  0.75000000  0.25000000  1
