# generated using pymatgen
data_H7He2
_symmetry_space_group_name_H-M   'P 1'
_cell_length_a   5.27406071
_cell_length_b   5.75077322
_cell_length_c   25.89432330
_cell_angle_alpha   90.00000000
_cell_angle_beta   90.00000000
_cell_angle_gamma   123.03792650
_symmetry_Int_Tables_number   1
_chemical_formula_structural   H7He2
_chemical_formula_sum   'H28 He8'
_cell_volume   658.38588067
_cell_formula_units_Z   4
loop_
 _symmetry_equiv_pos_site_id
 _symmetry_equiv_pos_as_xyz
  1  'x, y, z'
loop_
 _atom_site_type_symbol
 _atom_site_label
 _atom_site_symmetry_multiplicity
 _atom_site_fract_x
 _atom_site_fract_y
 _atom_site_fract_z
 _atom_site_occupancy
  H  H0  1  -0.00000000  0.00000000  -0.00000000  1
  H  H1  1  -0.00000000  -0.00000000  0.50000000  1
  H  H2  1  0.02090603  0.01045301  0.16485275  1
  H  H3  1  -0.02090603  -0.01045301  0.66485275  1
  H  H4  1  -0.02090603  -0.01045301  0.83514725  1
  H  H5  1  0.02090603  0.01045301  0.33514725  1
  H  H6  1  0.37917377  0.68958688  0.83385179  1
  H  H7  1  0.62082623  0.31041312  0.33385179  1
  H  H8  1  0.62082623  0.31041312  0.16614821  1
  H  H9  1  0.37917377  0.68958688  0.66614821  1
  H  H10  1  0.82245372  0.16154099  0.25000000  1
  H  H11  1  0.82245372  0.66091273  0.25000000  1
  H  H12  1  0.32058639  0.16029320  0.25000000  1
  H  H13  1  0.17754628  0.83845901  0.75000000  1
  H  H14  1  0.17754628  0.33908727  0.75000000  1
  H  H15  1  0.67941361  0.83970680  0.75000000  1
  H  H16  1  0.82743200  0.16928859  0.09312254  1
  H  H17  1  0.82743200  0.65814341  0.09312254  1
  H  H18  1  0.31594001  0.15797001  0.08175773  1
  H  H19  1  0.17256800  0.83071141  0.59312254  1
  H  H20  1  0.17256800  0.34185659  0.59312254  1
  H  H21  1  0.68405999  0.84202999  0.58175773  1
  H  H22  1  0.17256800  0.34185659  0.90687746  1
  H  H23  1  0.17256800  0.83071141  0.90687746  1
  H  H24  1  0.68405999  0.84202999  0.91824227  1
  H  H25  1  0.82743200  0.65814341  0.40687746  1
  H  H26  1  0.82743200  0.16928859  0.40687746  1
  H  H27  1  0.31594001  0.15797001  0.41824227  1
  He  He28  1  0.34100778  0.67050389  0.03322315  1
  He  He29  1  0.65899222  0.32949611  0.53322315  1
  He  He30  1  0.65899222  0.32949611  0.96677685  1
  He  He31  1  0.34100778  0.67050389  0.46677685  1
  He  He32  1  0.32489663  0.66244832  0.17463043  1
  He  He33  1  0.67510337  0.33755168  0.67463043  1
  He  He34  1  0.67510337  0.33755168  0.82536957  1
  He  He35  1  0.32489663  0.66244832  0.32536957  1
