# generated using pymatgen
data_H2He
_symmetry_space_group_name_H-M   'P 1'
_cell_length_a   11.93269574
_cell_length_b   11.93269574
_cell_length_c   7.55444059
_cell_angle_alpha   90.00000000
_cell_angle_beta   90.00000000
_cell_angle_gamma   105.50423678
_symmetry_Int_Tables_number   1
_chemical_formula_structural   H2He
_chemical_formula_sum   'H36 He18'
_cell_volume   1036.52803619
_cell_formula_units_Z   18
loop_
 _symmetry_equiv_pos_site_id
 _symmetry_equiv_pos_as_xyz
  1  'x, y, z'
loop_
 _atom_site_type_symbol
 _atom_site_label
 _atom_site_symmetry_multiplicity
 _atom_site_fract_x
 _atom_site_fract_y
 _atom_site_fract_z
 _atom_site_occupancy
  H  H0  1  0.78237814  0.78237814  0.75329345  1
  H  H1  1  0.21762186  0.21762186  0.75329345  1
  H  H2  1  0.78237814  0.78237814  0.24670655  1
  H  H3  1  0.21762186  0.21762186  0.24670655  1
  H  H4  1  0.00947913  0.80865204  0.75620976  1
  H  H5  1  0.99052087  0.19134796  0.75620976  1
  H  H6  1  0.80865204  0.00947913  0.24379024  1
  H  H7  1  0.19134796  0.99052087  0.24379024  1
  H  H8  1  0.99052087  0.19134796  0.24379024  1
  H  H9  1  0.00947913  0.80865204  0.24379024  1
  H  H10  1  0.19134796  0.99052087  0.75620976  1
  H  H11  1  0.80865204  0.00947913  0.75620976  1
  H  H12  1  0.21921295  0.78078705  0.82287612  1
  H  H13  1  0.78078705  0.21921295  0.82287612  1
  H  H14  1  0.78078705  0.21921295  0.17712388  1
  H  H15  1  0.21921295  0.78078705  0.17712388  1
  H  H16  1  -0.00000000  0.50000000  0.00000000  1
  H  H17  1  0.50000000  -0.00000000  -0.00000000  1
  H  H18  1  0.22847850  0.59132342  0.00000000  1
  H  H19  1  0.77152150  0.40867658  -0.00000000  1
  H  H20  1  0.59132342  0.22847850  0.00000000  1
  H  H21  1  0.40867658  0.77152150  -0.00000000  1
  H  H22  1  0.86223200  0.60142711  0.82325194  1
  H  H23  1  0.13776800  0.39857289  0.82325194  1
  H  H24  1  0.60142711  0.86223200  0.17674806  1
  H  H25  1  0.39857289  0.13776800  0.17674806  1
  H  H26  1  0.13776800  0.39857289  0.17674806  1
  H  H27  1  0.86223200  0.60142711  0.17674806  1
  H  H28  1  0.39857289  0.13776800  0.82325194  1
  H  H29  1  0.60142711  0.86223200  0.82325194  1
  H  H30  1  0.16863025  0.83136975  0.50000000  1
  H  H31  1  0.83136975  0.16863025  0.50000000  1
  H  H32  1  0.87995537  0.68362566  0.50000000  1
  H  H33  1  0.12004463  0.31637434  0.50000000  1
  H  H34  1  0.68362566  0.87995537  0.50000000  1
  H  H35  1  0.31637434  0.12004463  0.50000000  1
  He  He36  1  0.88392531  0.71946374  0.70790749  1
  He  He37  1  0.11607469  0.28053626  0.70790749  1
  He  He38  1  0.71946374  0.88392531  0.29209251  1
  He  He39  1  0.28053626  0.11607469  0.29209251  1
  He  He40  1  0.11607469  0.28053626  0.29209251  1
  He  He41  1  0.88392531  0.71946374  0.29209251  1
  He  He42  1  0.28053626  0.11607469  0.70790749  1
  He  He43  1  0.71946374  0.88392531  0.70790749  1
  He  He44  1  0.14717651  0.85282349  0.70838052  1
  He  He45  1  0.85282349  0.14717651  0.70838052  1
  He  He46  1  0.85282349  0.14717651  0.29161948  1
  He  He47  1  0.14717651  0.85282349  0.29161948  1
  He  He48  1  0.26783336  0.73216664  -0.00000000  1
  He  He49  1  0.73216664  0.26783336  0.00000000  1
  He  He50  1  0.87467361  0.52846063  0.00000000  1
  He  He51  1  0.12532639  0.47153937  -0.00000000  1
  He  He52  1  0.52846063  0.87467361  -0.00000000  1
  He  He53  1  0.47153937  0.12532639  0.00000000  1
