# generated using pymatgen
data_HHe
_symmetry_space_group_name_H-M   'P 1'
_cell_length_a   3.85345029
_cell_length_b   5.73386892
_cell_length_c   7.95687135
_cell_angle_alpha   90.00000000
_cell_angle_beta   90.00000000
_cell_angle_gamma   90.00000000
_symmetry_Int_Tables_number   1
_chemical_formula_structural   HHe
_chemical_formula_sum   'H4 He4'
_cell_volume   175.80849532
_cell_formula_units_Z   4
loop_
 _symmetry_equiv_pos_site_id
 _symmetry_equiv_pos_as_xyz
  1  'x, y, z'
loop_
 _atom_site_type_symbol
 _atom_site_label
 _atom_site_symmetry_multiplicity
 _atom_site_fract_x
 _atom_site_fract_y
 _atom_site_fract_z
 _atom_site_occupancy
  H  H0  1  0.75000000  0.37194641  0.03757129  1
  H  H1  1  0.25000000  0.87194641  0.46242871  1
  H  H2  1  0.25000000  0.62805359  0.96242871  1
  H  H3  1  0.75000000  0.12805359  0.53757129  1
  He  He4  1  0.75000000  0.88544620  0.17902071  1
  He  He5  1  0.25000000  0.38544620  0.32097929  1
  He  He6  1  0.25000000  0.11455380  0.82097929  1
  He  He7  1  0.75000000  0.61455380  0.67902071  1
