# generated using pymatgen
data_H4HeLi2
_symmetry_space_group_name_H-M   'P 1'
_cell_length_a   6.99096593
_cell_length_b   6.99096593
_cell_length_c   6.99096593
_cell_angle_alpha   147.29064986
_cell_angle_beta   147.29064986
_cell_angle_gamma   46.93361957
_symmetry_Int_Tables_number   1
_chemical_formula_structural   H4HeLi2
_chemical_formula_sum   'H4 He1 Li2'
_cell_volume   99.40080720
_cell_formula_units_Z   1
loop_
 _symmetry_equiv_pos_site_id
 _symmetry_equiv_pos_as_xyz
  1  'x, y, z'
loop_
 _atom_site_type_symbol
 _atom_site_label
 _atom_site_symmetry_multiplicity
 _atom_site_fract_x
 _atom_site_fract_y
 _atom_site_fract_z
 _atom_site_occupancy
  H  H0  1  0.16268716  0.16268716  0.00000000  1
  H  H1  1  0.83731284  0.83731284  -0.00000000  1
  H  H2  1  -0.00000000  0.50000000  0.50000000  1
  H  H3  1  0.50000000  -0.00000000  0.50000000  1
  He  He4  1  -0.00000000  -0.00000000  0.00000000  1
  Li  Li5  1  0.35329339  0.35329339  -0.00000000  1
  Li  Li6  1  0.64670661  0.64670661  -0.00000000  1
