# generated using pymatgen
data_H3He2Li3
_symmetry_space_group_name_H-M   'P 1'
_cell_length_a   8.65712534
_cell_length_b   8.65693386
_cell_length_c   8.65701029
_cell_angle_alpha   89.88673926
_cell_angle_beta   89.88682512
_cell_angle_gamma   89.88560543
_symmetry_Int_Tables_number   1
_chemical_formula_structural   H3He2Li3
_chemical_formula_sum   'H12 He8 Li12'
_cell_volume   648.78855580
_cell_formula_units_Z   4
loop_
 _symmetry_equiv_pos_site_id
 _symmetry_equiv_pos_as_xyz
  1  'x, y, z'
loop_
 _atom_site_type_symbol
 _atom_site_label
 _atom_site_symmetry_multiplicity
 _atom_site_fract_x
 _atom_site_fract_y
 _atom_site_fract_z
 _atom_site_occupancy
  H  H0  1  0.25513114  0.91684637  0.10192257  1
  H  H1  1  0.10191461  0.25470708  0.91734464  1
  H  H2  1  0.91731955  0.10151335  0.25522715  1
  H  H3  1  0.25053189  0.58751167  0.40494975  1
  H  H4  1  0.40501700  0.25005937  0.58802409  1
  H  H5  1  0.58795169  0.40449194  0.25060628  1
  H  H6  1  0.75482071  0.41666129  0.90486810  1
  H  H7  1  0.90475092  0.75441804  0.41716079  1
  H  H8  1  0.41711573  0.90421461  0.75489498  1
  H  H9  1  0.75119721  0.08834223  0.60096745  1
  H  H10  1  0.60084696  0.75069348  0.08885872  1
  H  H11  1  0.08879538  0.60034967  0.75124874  1
  He  He12  1  0.00505539  0.00459856  0.00510420  1
  He  He13  1  0.50102405  0.50055489  0.50108033  1
  He  He14  1  0.00181092  0.50538789  0.50111600  1
  He  He15  1  0.50107127  0.00131704  0.50589938  1
  He  He16  1  0.50578917  0.50056782  0.00184632  1
  He  He17  1  0.50379554  -0.00047345  0.00509493  1
  He  He18  1  0.00503591  0.50336949  0.00009719  1
  He  He19  1  0.00001796  0.00462873  0.50387575  1
  Li  Li20  1  0.60602868  0.11033246  0.25368807  1
  Li  Li21  1  0.25359051  0.60557042  0.11080964  1
  Li  Li22  1  0.11085559  0.25317943  0.60606448  1
  Li  Li23  1  0.75641938  0.10627147  0.89522318  1
  Li  Li24  1  0.89511489  0.75601280  0.10677398  1
  Li  Li25  1  0.10670277  0.89463290  0.75649932  1
  Li  Li26  1  0.74957647  0.39870042  0.61067785  1
  Li  Li27  1  0.61055509  0.74907785  0.39916184  1
  Li  Li28  1  0.39910166  0.61002586  0.74961103  1
  Li  Li29  1  0.39595836  0.25162822  0.89910013  1
  Li  Li30  1  0.89898819  0.39555693  0.25221680  1
  Li  Li31  1  0.25212009  0.89858504  0.39598098  1
