# generated using pymatgen
data_HHe2(Li2Be)2
_symmetry_space_group_name_H-M   'P 1'
_cell_length_a   5.90202915
_cell_length_b   5.92744094
_cell_length_c   8.93616973
_cell_angle_alpha   82.67442371
_cell_angle_beta   71.66752709
_cell_angle_gamma   68.86869805
_symmetry_Int_Tables_number   1
_chemical_formula_structural   HHe2(Li2Be)2
_chemical_formula_sum   'H2 He4 Li8 Be4'
_cell_volume   276.76589660
_cell_formula_units_Z   2
loop_
 _symmetry_equiv_pos_site_id
 _symmetry_equiv_pos_as_xyz
  1  'x, y, z'
loop_
 _atom_site_type_symbol
 _atom_site_label
 _atom_site_symmetry_multiplicity
 _atom_site_fract_x
 _atom_site_fract_y
 _atom_site_fract_z
 _atom_site_occupancy
  H  H0  1  0.15946001  0.27970978  0.23756535  1
  H  H1  1  0.84053999  0.72029022  0.76243465  1
  He  He2  1  0.15570686  0.54242204  0.64672429  1
  He  He3  1  0.84429314  0.45757796  0.35327571  1
  He  He4  1  0.29482521  0.03746032  0.36400209  1
  He  He5  1  0.70517479  0.96253968  0.63599791  1
  Li  Li6  1  0.52105010  0.26160324  0.44181157  1
  Li  Li7  1  0.47894990  0.73839676  0.55818843  1
  Li  Li8  1  0.94601421  0.24107362  0.59872135  1
  Li  Li9  1  0.05398579  0.75892638  0.40127865  1
  Li  Li10  1  0.38922507  0.27400030  0.81685173  1
  Li  Li11  1  0.61077493  0.72599970  0.18314827  1
  Li  Li12  1  0.23928090  0.76023744  0.98394844  1
  Li  Li13  1  0.76071910  0.23976256  0.01605156  1
  Be  Be14  1  0.36148925  0.48362101  0.18509137  1
  Be  Be15  1  0.63851075  0.51637899  0.81490863  1
  Be  Be16  1  0.15233535  0.15348641  0.05485703  1
  Be  Be17  1  0.84766465  0.84651359  0.94514297  1
