# generated using pymatgen
data_H2He3
_symmetry_space_group_name_H-M   'P 1'
_cell_length_a   6.55283196
_cell_length_b   4.97626661
_cell_length_c   12.98980691
_cell_angle_alpha   88.91380979
_cell_angle_beta   90.00000000
_cell_angle_gamma   90.00000000
_symmetry_Int_Tables_number   1
_chemical_formula_structural   H2He3
_chemical_formula_sum   'H8 He12'
_cell_volume   423.50380996
_cell_formula_units_Z   4
loop_
 _symmetry_equiv_pos_site_id
 _symmetry_equiv_pos_as_xyz
  1  'x, y, z'
loop_
 _atom_site_type_symbol
 _atom_site_label
 _atom_site_symmetry_multiplicity
 _atom_site_fract_x
 _atom_site_fract_y
 _atom_site_fract_z
 _atom_site_occupancy
  H  H0  1  0.90035017  0.16433495  0.13708740  1
  H  H1  1  0.40035017  0.33566505  0.86291260  1
  H  H2  1  0.09964983  0.83566505  0.86291260  1
  H  H3  1  0.59964983  0.66433495  0.13708740  1
  H  H4  1  0.58285614  0.28113107  0.63147393  1
  H  H5  1  0.08285614  0.21886893  0.36852607  1
  H  H6  1  0.41714386  0.71886893  0.36852607  1
  H  H7  1  0.91714386  0.78113107  0.63147393  1
  He  He8  1  0.83125330  0.44166405  0.60897431  1
  He  He9  1  0.33125330  0.05833595  0.39102569  1
  He  He10  1  0.16874670  0.55833595  0.39102569  1
  He  He11  1  0.66874670  0.94166405  0.60897431  1
  He  He12  1  0.59803370  0.27043467  0.77273458  1
  He  He13  1  0.09803370  0.22956533  0.22726542  1
  He  He14  1  0.40196630  0.72956533  0.22726542  1
  He  He15  1  0.90196630  0.77043467  0.77273458  1
  He  He16  1  0.81923275  0.84292211  0.19210986  1
  He  He17  1  0.31923275  0.65707789  0.80789014  1
  He  He18  1  0.18076725  0.15707789  0.80789014  1
  He  He19  1  0.68076725  0.34292211  0.19210986  1
