# generated using pymatgen
data_H2He3Li3
_symmetry_space_group_name_H-M   'P 1'
_cell_length_a   7.00090637
_cell_length_b   7.00090637
_cell_length_c   12.92413125
_cell_angle_alpha   94.79343016
_cell_angle_beta   94.79343016
_cell_angle_gamma   80.92300132
_symmetry_Int_Tables_number   1
_chemical_formula_structural   H2He3Li3
_chemical_formula_sum   'H8 He12 Li12'
_cell_volume   621.72978550
_cell_formula_units_Z   4
loop_
 _symmetry_equiv_pos_site_id
 _symmetry_equiv_pos_as_xyz
  1  'x, y, z'
loop_
 _atom_site_type_symbol
 _atom_site_label
 _atom_site_symmetry_multiplicity
 _atom_site_fract_x
 _atom_site_fract_y
 _atom_site_fract_z
 _atom_site_occupancy
  H  H0  1  0.37092623  -0.00122640  0.94854270  1
  H  H1  1  0.00122640  0.62907377  0.05145730  1
  H  H2  1  0.21413084  0.39765488  0.91976110  1
  H  H3  1  0.60234512  0.78586916  0.08023890  1
  H  H4  1  0.91709054  0.88352145  0.70859106  1
  H  H5  1  0.11647855  0.08290946  0.29140894  1
  H  H6  1  0.09610751  0.43096514  0.73241290  1
  H  H7  1  0.56903486  0.90389249  0.26758710  1
  He  He8  1  0.54432407  0.18220960  0.79305502  1
  He  He9  1  0.81779040  0.45567593  0.20694498  1
  He  He10  1  0.68418000  0.58668422  0.61034947  1
  He  He11  1  0.41331578  0.31582000  0.38965053  1
  He  He12  1  0.19996768  0.03428367  0.59850962  1
  He  He13  1  -0.03428367  0.80003232  0.40149038  1
  He  He14  1  0.80062617  0.65578273  0.86734272  1
  He  He15  1  0.34421727  0.19937383  0.13265728  1
  He  He16  1  0.33056461  0.71586384  0.78430402  1
  He  He17  1  0.28413616  0.66943539  0.21569598  1
  He  He18  1  0.65337201  0.03106301  0.54088759  1
  He  He19  1  0.96893699  0.34662799  0.45911241  1
  Li  Li20  1  0.12631211  0.09638554  0.80971747  1
  Li  Li21  1  0.90361446  0.87368789  0.19028253  1
  Li  Li22  1  0.36715549  0.37853618  0.60877748  1
  Li  Li23  1  0.62146382  0.63284451  0.39122252  1
  Li  Li24  1  0.09571132  0.65257202  0.58665784  1
  Li  Li25  1  0.34742798  0.90428868  0.41334216  1
  Li  Li26  1  0.85714606  0.23825291  0.67924417  1
  Li  Li27  1  0.76174709  0.14285394  0.32075583  1
  Li  Li28  1  0.55127787  0.44872213  -0.00000000  1
  Li  Li29  1  0.79578534  0.20421466  0.00000000  1
  Li  Li30  1  0.30203280  0.69796720  0.00000000  1
  Li  Li31  1  0.04203814  0.95796186  0.00000000  1
