# generated using pymatgen
data_H3He
_symmetry_space_group_name_H-M   'P 1'
_cell_length_a   9.10130422
_cell_length_b   9.10130422
_cell_length_c   8.55304236
_cell_angle_alpha   36.20412369
_cell_angle_beta   36.20412369
_cell_angle_gamma   31.64703595
_symmetry_Int_Tables_number   1
_chemical_formula_structural   H3He
_chemical_formula_sum   'H9 He3'
_cell_volume   202.44166660
_cell_formula_units_Z   3
loop_
 _symmetry_equiv_pos_site_id
 _symmetry_equiv_pos_as_xyz
  1  'x, y, z'
loop_
 _atom_site_type_symbol
 _atom_site_label
 _atom_site_symmetry_multiplicity
 _atom_site_fract_x
 _atom_site_fract_y
 _atom_site_fract_z
 _atom_site_occupancy
  H  H0  1  0.57467640  0.57467640  0.08697919  1
  H  H1  1  0.08579864  0.58377445  0.57874046  1
  H  H2  1  0.58377445  0.08579864  0.57874046  1
  H  H3  1  0.42666288  0.42666288  0.91192293  1
  H  H4  1  0.41677027  0.91512527  0.41822578  1
  H  H5  1  0.91512527  0.41677027  0.41822578  1
  H  H6  1  0.31652747  0.31652747  0.35537606  1
  H  H7  1  0.68017981  0.68017981  0.64742997  1
  H  H8  1  0.50096002  0.50096002  0.49885800  1
  He  He9  1  0.14038782  0.14038782  0.14451199  1
  He  He10  1  0.86136607  0.86136607  0.85638568  1
  He  He11  1  0.99777089  0.99777089  0.00560369  1
