# generated using pymatgen
data_HHe2
_symmetry_space_group_name_H-M   'P 1'
_cell_length_a   5.01820139
_cell_length_b   5.01822408
_cell_length_c   5.75573047
_cell_angle_alpha   90.00368244
_cell_angle_beta   89.99634713
_cell_angle_gamma   120.02229959
_symmetry_Int_Tables_number   1
_chemical_formula_structural   HHe2
_chemical_formula_sum   'H3 He6'
_cell_volume   125.49649129
_cell_formula_units_Z   3
loop_
 _symmetry_equiv_pos_site_id
 _symmetry_equiv_pos_as_xyz
  1  'x, y, z'
loop_
 _atom_site_type_symbol
 _atom_site_label
 _atom_site_symmetry_multiplicity
 _atom_site_fract_x
 _atom_site_fract_y
 _atom_site_fract_z
 _atom_site_occupancy
  H  H0  1  0.55192342  0.00002255  0.33318503  1
  H  H1  1  0.00001652  0.55192909  0.66681695  1
  H  H2  1  0.44803948  0.44804270  0.99997924  1
  He  He3  1  0.39333854  0.08568666  0.08725056  1
  He  He4  1  0.91426265  0.30768783  0.42071824  1
  He  He5  1  0.69238956  0.60662686  0.75402246  1
  He  He6  1  0.08569726  0.39332957  0.91273620  1
  He  He7  1  0.30770101  0.91427792  0.57926646  1
  He  He8  1  0.60663156  0.69239683  0.24595820  1
