# generated using pymatgen
data_HHe5Li
_symmetry_space_group_name_H-M   'P 1'
_cell_length_a   6.47341541
_cell_length_b   17.77195565
_cell_length_c   17.16977121
_cell_angle_alpha   64.23249850
_cell_angle_beta   90.00000000
_cell_angle_gamma   90.00000000
_symmetry_Int_Tables_number   1
_chemical_formula_structural   HHe5Li
_chemical_formula_sum   'H8 He40 Li8'
_cell_volume   1778.88760132
_cell_formula_units_Z   8
loop_
 _symmetry_equiv_pos_site_id
 _symmetry_equiv_pos_as_xyz
  1  'x, y, z'
loop_
 _atom_site_type_symbol
 _atom_site_label
 _atom_site_symmetry_multiplicity
 _atom_site_fract_x
 _atom_site_fract_y
 _atom_site_fract_z
 _atom_site_occupancy
  H  H0  1  0.45039766  0.56712562  0.09048996  1
  H  H1  1  0.95039766  0.43287438  0.40951004  1
  H  H2  1  0.54960234  0.43287438  0.90951004  1
  H  H3  1  0.04960234  0.56712562  0.59048996  1
  H  H4  1  0.90937643  0.86557065  0.90102937  1
  H  H5  1  0.40937643  0.13442935  0.59897063  1
  H  H6  1  0.09062357  0.13442935  0.09897063  1
  H  H7  1  0.59062357  0.86557065  0.40102937  1
  He  He8  1  0.19057138  0.77869700  0.13229935  1
  He  He9  1  0.69057138  0.22130300  0.36770065  1
  He  He10  1  0.80942862  0.22130300  0.86770065  1
  He  He11  1  0.30942862  0.77869700  0.63229935  1
  He  He12  1  0.61696393  0.39782278  0.57596735  1
  He  He13  1  0.11696393  0.60217722  0.92403265  1
  He  He14  1  0.38303607  0.60217722  0.42403265  1
  He  He15  1  0.88303607  0.39782278  0.07596735  1
  He  He16  1  0.71176471  0.71848469  0.79162582  1
  He  He17  1  0.21176471  0.28151531  0.70837418  1
  He  He18  1  0.28823529  0.28151531  0.20837418  1
  He  He19  1  0.78823529  0.71848469  0.29162582  1
  He  He20  1  0.18850059  0.64848431  0.78875258  1
  He  He21  1  0.68850059  0.35151569  0.71124742  1
  He  He22  1  0.81149941  0.35151569  0.21124742  1
  He  He23  1  0.31149941  0.64848431  0.28875258  1
  He  He24  1  0.40927966  0.89738972  0.21178919  1
  He  He25  1  0.90927966  0.10261028  0.28821081  1
  He  He26  1  0.59072034  0.10261028  0.78821081  1
  He  He27  1  0.09072034  0.89738972  0.71178919  1
  He  He28  1  0.24097375  0.71551988  0.91720467  1
  He  He29  1  0.74097375  0.28448012  0.58279533  1
  He  He30  1  0.75902625  0.28448012  0.08279533  1
  He  He31  1  0.25902625  0.71551988  0.41720467  1
  He  He32  1  0.70067145  0.72454317  0.07585263  1
  He  He33  1  0.20067145  0.27545683  0.42414737  1
  He  He34  1  0.29932855  0.27545683  0.92414737  1
  He  He35  1  0.79932855  0.72454317  0.57585263  1
  He  He36  1  0.74006610  0.44736147  0.23664485  1
  He  He37  1  0.24006610  0.55263853  0.26335515  1
  He  He38  1  0.25993390  0.55263853  0.76335515  1
  He  He39  1  0.75993390  0.44736147  0.73664485  1
  He  He40  1  0.60675733  0.90861792  0.10933264  1
  He  He41  1  0.10675733  0.09138208  0.39066736  1
  He  He42  1  0.39324267  0.09138208  0.89066736  1
  He  He43  1  -0.10675733  0.90861792  0.60933264  1
  He  He44  1  0.44722168  0.88217480  0.82318760  1
  He  He45  1  0.94722168  0.11782520  0.67681240  1
  He  He46  1  0.55277832  0.11782520  0.17681240  1
  He  He47  1  0.05277832  0.88217480  0.32318760  1
  Li  Li48  1  0.55614066  0.76421927  0.16914213  1
  Li  Li49  1  0.05614066  0.23578073  0.33085787  1
  Li  Li50  1  0.44385934  0.23578073  0.83085787  1
  Li  Li51  1  0.94385934  0.76421927  0.66914213  1
  Li  Li52  1  0.38268812  0.78727144  0.76995795  1
  Li  Li53  1  0.88268812  0.21272856  0.73004205  1
  Li  Li54  1  0.61731188  0.21272856  0.23004205  1
  Li  Li55  1  0.11731188  0.78727144  0.26995795  1
