# generated using pymatgen
data_HHe4Li2
_symmetry_space_group_name_H-M   'P 1'
_cell_length_a   3.48847040
_cell_length_b   10.51928484
_cell_length_c   12.23314909
_cell_angle_alpha   90.00000000
_cell_angle_beta   90.00000000
_cell_angle_gamma   90.00000000
_symmetry_Int_Tables_number   1
_chemical_formula_structural   HHe4Li2
_chemical_formula_sum   'H4 He16 Li8'
_cell_volume   448.91025500
_cell_formula_units_Z   4
loop_
 _symmetry_equiv_pos_site_id
 _symmetry_equiv_pos_as_xyz
  1  'x, y, z'
loop_
 _atom_site_type_symbol
 _atom_site_label
 _atom_site_symmetry_multiplicity
 _atom_site_fract_x
 _atom_site_fract_y
 _atom_site_fract_z
 _atom_site_occupancy
  H  H0  1  0.25000000  0.75285321  0.35135816  1
  H  H1  1  0.75000000  0.74714679  0.85135816  1
  H  H2  1  0.75000000  0.24714679  0.64864184  1
  H  H3  1  0.25000000  0.25285321  0.14864184  1
  He  He4  1  0.25000000  0.21005768  0.84054586  1
  He  He5  1  0.75000000  0.28994232  0.34054586  1
  He  He6  1  0.75000000  0.78994232  0.15945414  1
  He  He7  1  0.25000000  0.71005768  0.65945414  1
  He  He8  1  0.25000000  0.11579278  0.51819666  1
  He  He9  1  0.75000000  0.38420722  0.01819666  1
  He  He10  1  0.75000000  0.88420722  0.48180334  1
  He  He11  1  0.25000000  0.61579278  0.98180334  1
  He  He12  1  0.25000000  0.51773283  0.21709129  1
  He  He13  1  0.75000000  0.98226717  0.71709129  1
  He  He14  1  0.75000000  0.48226717  0.78290871  1
  He  He15  1  0.25000000  0.01773283  0.28290871  1
  He  He16  1  0.25000000  0.42976219  0.57429654  1
  He  He17  1  0.75000000  0.07023781  0.07429654  1
  He  He18  1  0.75000000  0.57023781  0.42570346  1
  He  He19  1  0.25000000  0.92976219  0.92570346  1
  Li  Li20  1  0.25000000  0.42293317  0.89080194  1
  Li  Li21  1  0.75000000  0.07706683  0.39080194  1
  Li  Li22  1  0.75000000  0.57706683  0.10919806  1
  Li  Li23  1  0.25000000  0.92293317  0.60919806  1
  Li  Li24  1  0.25000000  0.42585743  0.38907016  1
  Li  Li25  1  0.75000000  0.07414257  0.88907016  1
  Li  Li26  1  0.75000000  0.57414257  0.61092984  1
  Li  Li27  1  0.25000000  0.92585743  0.11092984  1
