# generated using pymatgen
data_HHe3Li3Be
_symmetry_space_group_name_H-M   'P 1'
_cell_length_a   7.90340859
_cell_length_b   7.90340859
_cell_length_c   6.75525673
_cell_angle_alpha   88.99577179
_cell_angle_beta   88.99577179
_cell_angle_gamma   77.52206909
_symmetry_Int_Tables_number   1
_chemical_formula_structural   HHe3Li3Be
_chemical_formula_sum   'H2 He6 Li6 Be2'
_cell_volume   411.88840446
_cell_formula_units_Z   2
loop_
 _symmetry_equiv_pos_site_id
 _symmetry_equiv_pos_as_xyz
  1  'x, y, z'
loop_
 _atom_site_type_symbol
 _atom_site_label
 _atom_site_symmetry_multiplicity
 _atom_site_fract_x
 _atom_site_fract_y
 _atom_site_fract_z
 _atom_site_occupancy
  H  H0  1  0.65134384  0.65134384  0.75787648  1
  H  H1  1  0.34865616  0.34865616  0.24212352  1
  He  He2  1  0.04087276  0.70282201  0.79891412  1
  He  He3  1  0.29717799  0.95912724  0.20108588  1
  He  He4  1  0.95912724  0.29717799  0.20108588  1
  He  He5  1  0.70282201  0.04087276  0.79891412  1
  He  He6  1  0.81729121  0.81729121  0.38418360  1
  He  He7  1  0.18270879  0.18270879  0.61581640  1
  Li  Li8  1  0.63623209  0.63623209  0.95967002  1
  Li  Li9  1  0.36376791  0.36376791  0.04032998  1
  Li  Li10  1  0.71053169  0.48790034  0.68685517  1
  Li  Li11  1  0.51209966  0.28946831  0.31314483  1
  Li  Li12  1  0.28946831  0.51209966  0.31314483  1
  Li  Li13  1  0.48790034  0.71053169  0.68685517  1
  Be  Be14  1  0.80459668  0.80459668  0.68424010  1
  Be  Be15  1  0.19540332  0.19540332  0.31575990  1
