# generated using pymatgen
data_H4He3LiBe4B
_symmetry_space_group_name_H-M   'P 1'
_cell_length_a   6.75437284
_cell_length_b   6.75437284
_cell_length_c   6.75437284
_cell_angle_alpha   99.98565450
_cell_angle_beta   99.98565450
_cell_angle_gamma   99.98565450
_symmetry_Int_Tables_number   1
_chemical_formula_structural   H4He3LiBe4B
_chemical_formula_sum   'H4 He3 Li1 Be4 B1'
_cell_volume   292.22932187
_cell_formula_units_Z   1
loop_
 _symmetry_equiv_pos_site_id
 _symmetry_equiv_pos_as_xyz
  1  'x, y, z'
loop_
 _atom_site_type_symbol
 _atom_site_label
 _atom_site_symmetry_multiplicity
 _atom_site_fract_x
 _atom_site_fract_y
 _atom_site_fract_z
 _atom_site_occupancy
  H  H0  1  0.45581909  0.45581909  0.45581909  1
  H  H1  1  0.39350673  0.30437077  0.06177075  1
  H  H2  1  0.06177075  0.39350673  0.30437077  1
  H  H3  1  0.30437077  0.06177075  0.39350673  1
  He  He4  1  0.10457933  0.68710730  0.88649034  1
  He  He5  1  0.88649034  0.10457933  0.68710730  1
  He  He6  1  0.68710730  0.88649034  0.10457933  1
  Li  Li7  1  0.26986977  0.26986977  0.26986977  1
  Be  Be8  1  0.57774636  0.57774636  0.57774636  1
  Be  Be9  1  0.47628796  0.33006564  0.92979813  1
  Be  Be10  1  0.92979813  0.47628796  0.33006564  1
  Be  Be11  1  0.33006564  0.92979813  0.47628796  1
  B  B12  1  0.00078783  0.00078783  0.00078783  1
