# generated using pymatgen
data_H3HeLi
_symmetry_space_group_name_H-M   'P 1'
_cell_length_a   5.99369645
_cell_length_b   8.31227793
_cell_length_c   11.95036235
_cell_angle_alpha   90.00000000
_cell_angle_beta   90.00000000
_cell_angle_gamma   90.00000000
_symmetry_Int_Tables_number   1
_chemical_formula_structural   H3HeLi
_chemical_formula_sum   'H24 He8 Li8'
_cell_volume   595.38223726
_cell_formula_units_Z   8
loop_
 _symmetry_equiv_pos_site_id
 _symmetry_equiv_pos_as_xyz
  1  'x, y, z'
loop_
 _atom_site_type_symbol
 _atom_site_label
 _atom_site_symmetry_multiplicity
 _atom_site_fract_x
 _atom_site_fract_y
 _atom_site_fract_z
 _atom_site_occupancy
  H  H0  1  0.70179464  -0.00000000  0.09497609  1
  H  H1  1  0.29820536  -0.00000000  0.90502391  1
  H  H2  1  0.79820536  -0.00000000  0.59497609  1
  H  H3  1  0.20179464  -0.00000000  0.40502391  1
  H  H4  1  0.72364590  0.50000000  0.15733496  1
  H  H5  1  0.27635410  0.50000000  0.84266504  1
  H  H6  1  0.77635410  0.50000000  0.65733496  1
  H  H7  1  0.22364590  0.50000000  0.34266504  1
  H  H8  1  0.96939438  0.21830403  0.26080616  1
  H  H9  1  0.03060562  0.21830403  0.73919384  1
  H  H10  1  0.53060562  0.78169597  0.76080616  1
  H  H11  1  0.46939438  0.78169597  0.23919384  1
  H  H12  1  0.03060562  0.78169597  0.73919384  1
  H  H13  1  0.96939438  0.78169597  0.26080616  1
  H  H14  1  0.46939438  0.21830403  0.23919384  1
  H  H15  1  0.53060562  0.21830403  0.76080616  1
  H  H16  1  0.50000000  0.29696356  -0.00000000  1
  H  H17  1  -0.00000000  0.70303644  0.50000000  1
  H  H18  1  0.50000000  0.70303644  -0.00000000  1
  H  H19  1  -0.00000000  0.29696356  0.50000000  1
  H  H20  1  -0.00000000  0.27259551  0.00000000  1
  H  H21  1  0.50000000  0.72740449  0.50000000  1
  H  H22  1  0.00000000  0.72740449  -0.00000000  1
  H  H23  1  0.50000000  0.27259551  0.50000000  1
  He  He24  1  0.29829911  0.00000000  0.13034551  1
  He  He25  1  0.70170089  -0.00000000  0.86965449  1
  He  He26  1  0.20170089  -0.00000000  0.63034551  1
  He  He27  1  0.79829911  0.00000000  0.36965449  1
  He  He28  1  0.30668363  0.50000000  0.12394155  1
  He  He29  1  0.69331637  0.50000000  0.87605845  1
  He  He30  1  0.19331637  0.50000000  0.62394155  1
  He  He31  1  0.80668363  0.50000000  0.37605845  1
  Li  Li32  1  0.76066304  0.25042919  0.12386147  1
  Li  Li33  1  0.23933696  0.25042919  0.87613853  1
  Li  Li34  1  0.73933696  0.74957081  0.62386147  1
  Li  Li35  1  0.26066304  0.74957081  0.37613853  1
  Li  Li36  1  0.23933696  0.74957081  0.87613853  1
  Li  Li37  1  0.76066304  0.74957081  0.12386147  1
  Li  Li38  1  0.26066304  0.25042919  0.37613853  1
  Li  Li39  1  0.73933696  0.25042919  0.62386147  1
