# generated using pymatgen
data_HHeLi2
_symmetry_space_group_name_H-M   'P 1'
_cell_length_a   9.81218393
_cell_length_b   4.50648288
_cell_length_c   7.15973191
_cell_angle_alpha   71.54305180
_cell_angle_beta   90.00000000
_cell_angle_gamma   90.00000000
_symmetry_Int_Tables_number   1
_chemical_formula_structural   HHeLi2
_chemical_formula_sum   'H4 He4 Li8'
_cell_volume   300.30723958
_cell_formula_units_Z   4
loop_
 _symmetry_equiv_pos_site_id
 _symmetry_equiv_pos_as_xyz
  1  'x, y, z'
loop_
 _atom_site_type_symbol
 _atom_site_label
 _atom_site_symmetry_multiplicity
 _atom_site_fract_x
 _atom_site_fract_y
 _atom_site_fract_z
 _atom_site_occupancy
  H  H0  1  0.14004122  0.58839618  0.21110821  1
  H  H1  1  0.64004122  0.41160382  0.28889179  1
  H  H2  1  0.85995878  0.41160382  0.78889179  1
  H  H3  1  0.35995878  0.58839618  0.71110821  1
  He  He4  1  0.41138513  0.07492133  0.18365515  1
  He  He5  1  0.91138513  0.92507867  0.31634485  1
  He  He6  1  0.58861487  0.92507867  0.81634485  1
  He  He7  1  0.08861487  0.07492133  0.68365515  1
  Li  Li8  1  0.41181475  0.79814364  0.30470504  1
  Li  Li9  1  0.91181475  0.20185636  0.19529496  1
  Li  Li10  1  0.58818525  0.20185636  0.69529496  1
  Li  Li11  1  0.08818525  0.79814364  0.80470504  1
  Li  Li12  1  0.30095633  0.15874145  0.08815375  1
  Li  Li13  1  0.80095633  0.84125855  0.41184625  1
  Li  Li14  1  0.69904367  0.84125855  0.91184625  1
  Li  Li15  1  0.19904367  0.15874145  0.58815375  1
