# generated using pymatgen
data_H6He2Li
_symmetry_space_group_name_H-M   'P 1'
_cell_length_a   4.84364505
_cell_length_b   4.84364505
_cell_length_c   9.27789577
_cell_angle_alpha   90.00000000
_cell_angle_beta   90.00000000
_cell_angle_gamma   90.00000000
_symmetry_Int_Tables_number   1
_chemical_formula_structural   H6He2Li
_chemical_formula_sum   'H12 He4 Li2'
_cell_volume   217.66776020
_cell_formula_units_Z   2
loop_
 _symmetry_equiv_pos_site_id
 _symmetry_equiv_pos_as_xyz
  1  'x, y, z'
loop_
 _atom_site_type_symbol
 _atom_site_label
 _atom_site_symmetry_multiplicity
 _atom_site_fract_x
 _atom_site_fract_y
 _atom_site_fract_z
 _atom_site_occupancy
  H  H0  1  0.31378305  0.31378305  0.00000000  1
  H  H1  1  0.68621695  0.68621695  -0.00000000  1
  H  H2  1  0.18621695  0.81378305  0.50000000  1
  H  H3  1  0.81378305  0.18621695  0.50000000  1
  H  H4  1  0.29481860  0.29481860  0.32270327  1
  H  H5  1  0.70518140  0.70518140  0.32270327  1
  H  H6  1  0.20518140  0.79481860  0.82270327  1
  H  H7  1  0.79481860  0.20518140  0.82270327  1
  H  H8  1  0.20518140  0.79481860  0.17729673  1
  H  H9  1  0.79481860  0.20518140  0.17729673  1
  H  H10  1  0.29481860  0.29481860  0.67729673  1
  H  H11  1  0.70518140  0.70518140  0.67729673  1
  He  He12  1  0.00000000  0.00000000  0.33066800  1
  He  He13  1  0.50000000  0.50000000  0.83066800  1
  He  He14  1  0.50000000  0.50000000  0.16933200  1
  He  He15  1  0.00000000  0.00000000  0.66933200  1
  Li  Li16  1  0.00000000  0.00000000  0.00000000  1
  Li  Li17  1  0.50000000  0.50000000  0.50000000  1
