# generated using pymatgen
data_H2He5Li
_symmetry_space_group_name_H-M   'P 1'
_cell_length_a   5.79361524
_cell_length_b   7.37137160
_cell_length_c   8.58095828
_cell_angle_alpha   90.00000000
_cell_angle_beta   90.00000000
_cell_angle_gamma   90.00000000
_symmetry_Int_Tables_number   1
_chemical_formula_structural   H2He5Li
_chemical_formula_sum   'H8 He20 Li4'
_cell_volume   366.46604851
_cell_formula_units_Z   4
loop_
 _symmetry_equiv_pos_site_id
 _symmetry_equiv_pos_as_xyz
  1  'x, y, z'
loop_
 _atom_site_type_symbol
 _atom_site_label
 _atom_site_symmetry_multiplicity
 _atom_site_fract_x
 _atom_site_fract_y
 _atom_site_fract_z
 _atom_site_occupancy
  H  H0  1  0.50000000  0.41114681  0.65145374  1
  H  H1  1  0.50000000  0.58885319  0.34854626  1
  H  H2  1  0.50000000  0.08885319  0.15145374  1
  H  H3  1  0.50000000  0.91114681  0.84854626  1
  H  H4  1  0.74613581  0.00000000  0.50000000  1
  H  H5  1  0.25386419  0.50000000  0.00000000  1
  H  H6  1  0.25386419  -0.00000000  0.50000000  1
  H  H7  1  0.74613581  0.50000000  0.00000000  1
  He  He8  1  0.72913314  -0.00000000  -0.00000000  1
  He  He9  1  0.27086686  0.50000000  0.50000000  1
  He  He10  1  0.27086686  0.00000000  0.00000000  1
  He  He11  1  0.72913314  0.50000000  0.50000000  1
  He  He12  1  0.00000000  0.16322272  0.55718053  1
  He  He13  1  0.00000000  0.83677728  0.44281947  1
  He  He14  1  0.00000000  0.33677728  0.05718053  1
  He  He15  1  0.00000000  0.66322272  0.94281947  1
  He  He16  1  0.50000000  0.15073032  0.56983410  1
  He  He17  1  0.50000000  0.84926968  0.43016590  1
  He  He18  1  0.50000000  0.34926968  0.06983410  1
  He  He19  1  0.50000000  0.65073032  0.93016590  1
  He  He20  1  0.75923224  0.39319101  0.79316043  1
  He  He21  1  0.75923224  0.60680899  0.20683957  1
  He  He22  1  0.24076776  0.10680899  0.29316043  1
  He  He23  1  0.24076776  0.89319101  0.70683957  1
  He  He24  1  0.24076776  0.60680899  0.20683957  1
  He  He25  1  0.24076776  0.39319101  0.79316043  1
  He  He26  1  0.75923224  0.89319101  0.70683957  1
  He  He27  1  0.75923224  0.10680899  0.29316043  1
  Li  Li28  1  0.00000000  0.13776804  0.82938728  1
  Li  Li29  1  0.00000000  0.86223196  0.17061272  1
  Li  Li30  1  0.00000000  0.36223196  0.32938728  1
  Li  Li31  1  0.00000000  0.63776804  0.67061272  1
