# generated using pymatgen
data_H3HeLi6Be
_symmetry_space_group_name_H-M   'P 1'
_cell_length_a   6.48695077
_cell_length_b   6.48695077
_cell_length_c   6.48695077
_cell_angle_alpha   92.02125502
_cell_angle_beta   92.02125502
_cell_angle_gamma   92.02125502
_symmetry_Int_Tables_number   1
_chemical_formula_structural   H3HeLi6Be
_chemical_formula_sum   'H6 He2 Li12 Be2'
_cell_volume   272.45248725
_cell_formula_units_Z   2
loop_
 _symmetry_equiv_pos_site_id
 _symmetry_equiv_pos_as_xyz
  1  'x, y, z'
loop_
 _atom_site_type_symbol
 _atom_site_label
 _atom_site_symmetry_multiplicity
 _atom_site_fract_x
 _atom_site_fract_y
 _atom_site_fract_z
 _atom_site_occupancy
  H  H0  1  0.75000000  0.10405036  0.39594964  1
  H  H1  1  0.10405036  0.39594964  0.75000000  1
  H  H2  1  0.39594964  0.75000000  0.10405036  1
  H  H3  1  0.25000000  0.89594964  0.60405036  1
  H  H4  1  0.89594964  0.60405036  0.25000000  1
  H  H5  1  0.60405036  0.25000000  0.89594964  1
  He  He6  1  0.75000000  0.75000000  0.75000000  1
  He  He7  1  0.25000000  0.25000000  0.25000000  1
  Li  Li8  1  0.92423228  0.04946677  0.70840856  1
  Li  Li9  1  0.04946677  0.70840856  0.92423228  1
  Li  Li10  1  0.70840856  0.92423228  0.04946677  1
  Li  Li11  1  0.79159144  0.45053323  0.57576772  1
  Li  Li12  1  0.57576772  0.79159144  0.45053323  1
  Li  Li13  1  0.45053323  0.57576772  0.79159144  1
  Li  Li14  1  0.07576772  0.95053323  0.29159144  1
  Li  Li15  1  0.95053323  0.29159144  0.07576772  1
  Li  Li16  1  0.29159144  0.07576772  0.95053323  1
  Li  Li17  1  0.20840856  0.54946677  0.42423228  1
  Li  Li18  1  0.42423228  0.20840856  0.54946677  1
  Li  Li19  1  0.54946677  0.42423228  0.20840856  1
  Be  Be20  1  0.00000000  0.00000000  0.00000000  1
  Be  Be21  1  0.50000000  0.50000000  0.50000000  1
