# generated using pymatgen
data_HHeLi4
_symmetry_space_group_name_H-M   'P 1'
_cell_length_a   7.04730706
_cell_length_b   7.04730706
_cell_length_c   7.04730706
_cell_angle_alpha   134.33977263
_cell_angle_beta   134.33977263
_cell_angle_gamma   66.55779288
_symmetry_Int_Tables_number   1
_chemical_formula_structural   HHeLi4
_chemical_formula_sum   'H2 He2 Li8'
_cell_volume   176.19937376
_cell_formula_units_Z   2
loop_
 _symmetry_equiv_pos_site_id
 _symmetry_equiv_pos_as_xyz
  1  'x, y, z'
loop_
 _atom_site_type_symbol
 _atom_site_label
 _atom_site_symmetry_multiplicity
 _atom_site_fract_x
 _atom_site_fract_y
 _atom_site_fract_z
 _atom_site_occupancy
  H  H0  1  0.37500000  0.62500000  0.25000000  1
  H  H1  1  0.62500000  0.37500000  0.75000000  1
  He  He2  1  0.87500000  0.12500000  0.25000000  1
  He  He3  1  0.12500000  0.87500000  0.75000000  1
  Li  Li4  1  0.95047952  0.28263500  0.65395310  1
  Li  Li5  1  0.62868189  0.79652641  0.84604690  1
  Li  Li6  1  0.79652641  0.95047952  0.66784452  1
  Li  Li7  1  0.28263500  0.62868189  0.83215548  1
  Li  Li8  1  0.04952048  0.71736500  0.34604690  1
  Li  Li9  1  0.37131811  0.20347359  0.15395310  1
  Li  Li10  1  0.20347359  0.04952048  0.33215548  1
  Li  Li11  1  0.71736500  0.37131811  0.16784452  1
