# generated using pymatgen
data_H3He5
_symmetry_space_group_name_H-M   'P 1'
_cell_length_a   8.88691333
_cell_length_b   8.88691333
_cell_length_c   8.88691333
_cell_angle_alpha   123.25846530
_cell_angle_beta   123.25846530
_cell_angle_gamma   84.44313801
_symmetry_Int_Tables_number   1
_chemical_formula_structural   H3He5
_chemical_formula_sum   'H6 He10'
_cell_volume   469.43556698
_cell_formula_units_Z   2
loop_
 _symmetry_equiv_pos_site_id
 _symmetry_equiv_pos_as_xyz
  1  'x, y, z'
loop_
 _atom_site_type_symbol
 _atom_site_label
 _atom_site_symmetry_multiplicity
 _atom_site_fract_x
 _atom_site_fract_y
 _atom_site_fract_z
 _atom_site_occupancy
  H  H0  1  0.75000000  0.75000000  0.00000000  1
  H  H1  1  0.25000000  0.25000000  -0.00000000  1
  H  H2  1  0.35092791  0.85092791  0.20185582  1
  H  H3  1  0.64907209  0.14907209  0.79814418  1
  H  H4  1  0.14907209  0.35092791  0.50000000  1
  H  H5  1  0.85092791  0.64907209  0.50000000  1
  He  He6  1  -0.00000000  -0.00000000  -0.00000000  1
  He  He7  1  0.50000000  0.50000000  0.00000000  1
  He  He8  1  0.98053251  0.48053251  0.79343987  1
  He  He9  1  0.68709264  0.18709264  0.20656013  1
  He  He10  1  0.18709264  0.98053251  0.50000000  1
  He  He11  1  0.48053251  0.68709264  0.50000000  1
  He  He12  1  0.51946749  0.31290736  0.50000000  1
  He  He13  1  0.81290736  0.01946749  0.50000000  1
  He  He14  1  0.31290736  0.81290736  0.79343987  1
  He  He15  1  0.01946749  0.51946749  0.20656013  1
