# generated using pymatgen
data_HHeLi
_symmetry_space_group_name_H-M   'P 1'
_cell_length_a   4.97785465
_cell_length_b   8.45272226
_cell_length_c   8.52146116
_cell_angle_alpha   90.00000000
_cell_angle_beta   90.00000000
_cell_angle_gamma   90.00000000
_symmetry_Int_Tables_number   1
_chemical_formula_structural   HHeLi
_chemical_formula_sum   'H4 He4 Li4'
_cell_volume   358.55260249
_cell_formula_units_Z   4
loop_
 _symmetry_equiv_pos_site_id
 _symmetry_equiv_pos_as_xyz
  1  'x, y, z'
loop_
 _atom_site_type_symbol
 _atom_site_label
 _atom_site_symmetry_multiplicity
 _atom_site_fract_x
 _atom_site_fract_y
 _atom_site_fract_z
 _atom_site_occupancy
  H  H0  1  0.75000000  0.84271514  0.58688856  1
  H  H1  1  0.25000000  0.65728486  0.08688856  1
  H  H2  1  0.25000000  0.15728486  0.41311144  1
  H  H3  1  0.75000000  0.34271514  0.91311144  1
  He  He4  1  0.75000000  0.70300106  0.90335776  1
  He  He5  1  0.25000000  0.79699894  0.40335776  1
  He  He6  1  0.25000000  0.29699894  0.09664224  1
  He  He7  1  0.75000000  0.20300106  0.59664224  1
  Li  Li8  1  0.75000000  0.49502794  0.32278603  1
  Li  Li9  1  0.25000000  0.00497206  0.82278603  1
  Li  Li10  1  0.25000000  0.50497206  0.67721397  1
  Li  Li11  1  0.75000000  0.99502794  0.17721397  1
