# generated using pymatgen
data_HHeLi
_symmetry_space_group_name_H-M   'P 1'
_cell_length_a   7.77564111
_cell_length_b   7.77564111
_cell_length_c   3.94772149
_cell_angle_alpha   90.00000000
_cell_angle_beta   90.00000000
_cell_angle_gamma   120.00013219
_symmetry_Int_Tables_number   1
_chemical_formula_structural   HHeLi
_chemical_formula_sum   'H3 He3 Li3'
_cell_volume   206.70404367
_cell_formula_units_Z   3
loop_
 _symmetry_equiv_pos_site_id
 _symmetry_equiv_pos_as_xyz
  1  'x, y, z'
loop_
 _atom_site_type_symbol
 _atom_site_label
 _atom_site_symmetry_multiplicity
 _atom_site_fract_x
 _atom_site_fract_y
 _atom_site_fract_z
 _atom_site_occupancy
  H  H0  1  0.99999739  0.99999739  0.50000000  1
  H  H1  1  0.33333154  0.66666874  0.00000000  1
  H  H2  1  0.66666874  0.33333154  0.00000000  1
  He  He3  1  0.59345231  0.99999921  0.50000000  1
  He  He4  1  0.99999921  0.59345231  0.50000000  1
  He  He5  1  0.40654888  0.40654888  0.50000000  1
  Li  Li6  1  0.26021829  0.00000300  0.00000000  1
  Li  Li7  1  0.00000300  0.26021829  0.00000000  1
  Li  Li8  1  0.73978065  0.73978065  0.00000000  1
