# generated using pymatgen
data_HHe2Li4Be
_symmetry_space_group_name_H-M   'P 1'
_cell_length_a   3.71627942
_cell_length_b   7.56682069
_cell_length_c   15.33254920
_cell_angle_alpha   90.00000000
_cell_angle_beta   90.00000000
_cell_angle_gamma   90.00000000
_symmetry_Int_Tables_number   1
_chemical_formula_structural   HHe2Li4Be
_chemical_formula_sum   'H4 He8 Li16 Be4'
_cell_volume   431.15772281
_cell_formula_units_Z   4
loop_
 _symmetry_equiv_pos_site_id
 _symmetry_equiv_pos_as_xyz
  1  'x, y, z'
loop_
 _atom_site_type_symbol
 _atom_site_label
 _atom_site_symmetry_multiplicity
 _atom_site_fract_x
 _atom_site_fract_y
 _atom_site_fract_z
 _atom_site_occupancy
  H  H0  1  0.25000000  0.47917971  0.40096865  1
  H  H1  1  0.75000000  0.02082029  0.90096865  1
  H  H2  1  0.75000000  0.52082029  0.59903135  1
  H  H3  1  0.25000000  0.97917971  0.09903135  1
  He  He4  1  0.04428416  0.84112059  0.25770792  1
  He  He5  1  0.95571584  0.65887941  0.75770792  1
  He  He6  1  0.54428416  0.15887941  0.74229208  1
  He  He7  1  0.45571584  0.34112059  0.24229208  1
  He  He8  1  0.95571584  0.15887941  0.74229208  1
  He  He9  1  0.04428416  0.34112059  0.24229208  1
  He  He10  1  0.45571584  0.84112059  0.25770792  1
  He  He11  1  0.54428416  0.65887941  0.75770792  1
  Li  Li12  1  0.25000000  0.84705461  0.95553888  1
  Li  Li13  1  0.75000000  0.65294539  0.45553888  1
  Li  Li14  1  0.75000000  0.15294539  0.04446112  1
  Li  Li15  1  0.25000000  0.34705461  0.54446112  1
  Li  Li16  1  0.75000000  0.08158032  0.52714545  1
  Li  Li17  1  0.25000000  0.41841968  0.02714545  1
  Li  Li18  1  0.25000000  0.91841968  0.47285455  1
  Li  Li19  1  0.75000000  0.58158032  0.97285455  1
  Li  Li20  1  0.75000000  0.41784824  0.16399394  1
  Li  Li21  1  0.25000000  0.08215176  0.66399394  1
  Li  Li22  1  0.25000000  0.58215176  0.83600606  1
  Li  Li23  1  0.75000000  0.91784824  0.33600606  1
  Li  Li24  1  0.25000000  0.80517550  0.22032084  1
  Li  Li25  1  0.75000000  0.69482450  0.72032084  1
  Li  Li26  1  0.75000000  0.19482450  0.77967916  1
  Li  Li27  1  0.25000000  0.30517550  0.27967916  1
  Be  Be28  1  0.75000000  0.87813145  0.44256184  1
  Be  Be29  1  0.25000000  0.62186855  0.94256184  1
  Be  Be30  1  0.25000000  0.12186855  0.55743816  1
  Be  Be31  1  0.75000000  0.37813145  0.05743816  1
