# generated using pymatgen
data_HHe(Li3Be)3
_symmetry_space_group_name_H-M   'P 1'
_cell_length_a   6.01311062
_cell_length_b   11.29187687
_cell_length_c   12.52008737
_cell_angle_alpha   90.00000000
_cell_angle_beta   90.00000000
_cell_angle_gamma   90.00043909
_symmetry_Int_Tables_number   1
_chemical_formula_structural   HHe(Li3Be)3
_chemical_formula_sum   'H4 He4 Li36 Be12'
_cell_volume   850.10522711
_cell_formula_units_Z   4
loop_
 _symmetry_equiv_pos_site_id
 _symmetry_equiv_pos_as_xyz
  1  'x, y, z'
loop_
 _atom_site_type_symbol
 _atom_site_label
 _atom_site_symmetry_multiplicity
 _atom_site_fract_x
 _atom_site_fract_y
 _atom_site_fract_z
 _atom_site_occupancy
  H  H0  1  0.89712872  0.48267900  0.86523599  1
  H  H1  1  0.39714192  0.01734458  0.13474126  1
  H  H2  1  0.60287128  0.51732100  0.36523599  1
  H  H3  1  0.10285808  0.98265542  0.63474126  1
  He  He4  1  0.90240440  0.10854108  0.91908472  1
  He  He5  1  0.40240413  0.39146019  0.08092150  1
  He  He6  1  0.59759560  0.89145892  0.41908472  1
  He  He7  1  0.09759587  0.60853981  0.58092150  1
  Li  Li8  1  0.60884173  0.28031555  0.58140365  1
  Li  Li9  1  0.10884443  0.21965465  0.41860789  1
  Li  Li10  1  0.89115827  0.71968445  0.08140365  1
  Li  Li11  1  0.39115557  0.78034535  0.91860789  1
  Li  Li12  1  0.41819650  0.17957544  0.73677491  1
  Li  Li13  1  0.91816823  0.32040892  0.26324662  1
  Li  Li14  1  0.08180350  0.82042456  0.23677491  1
  Li  Li15  1  0.58183177  0.67959108  0.76324662  1
  Li  Li16  1  0.42726558  0.40044144  0.72733933  1
  Li  Li17  1  0.92730439  0.09954183  0.27265042  1
  Li  Li18  1  0.07273442  0.59955856  0.22733933  1
  Li  Li19  1  0.57269561  0.90045817  0.77265042  1
  Li  Li20  1  0.50686174  0.49617047  0.55187792  1
  Li  Li21  1  0.00693112  0.00377055  0.44808394  1
  Li  Li22  1  0.99313826  0.50382953  0.05187792  1
  Li  Li23  1  0.49306888  0.99622945  0.94808394  1
  Li  Li24  1  0.83377871  0.44356793  0.67650917  1
  Li  Li25  1  0.33383875  0.05643045  0.32347909  1
  Li  Li26  1  0.66622129  0.55643207  0.17650917  1
  Li  Li27  1  0.16616125  0.94356955  0.82347909  1
  Li  Li28  1  0.61352900  0.29606777  0.88682078  1
  Li  Li29  1  0.11349610  0.20395588  0.11317142  1
  Li  Li30  1  0.88647100  0.70393223  0.38682078  1
  Li  Li31  1  0.38650390  0.79604412  0.61317142  1
  Li  Li32  1  0.19081501  0.29940508  0.86951408  1
  Li  Li33  1  0.69079246  0.20057743  0.13049570  1
  Li  Li34  1  0.30918499  0.70059492  0.36951408  1
  Li  Li35  1  0.80920754  0.79942257  0.63049570  1
  Li  Li36  1  0.82485889  0.13083550  0.69796425  1
  Li  Li37  1  0.32479885  0.36913639  0.30205565  1
  Li  Li38  1  0.67514111  0.86916450  0.19796425  1
  Li  Li39  1  0.17520115  0.63086361  0.80205565  1
  Li  Li40  1  0.50692465  0.06369418  0.56979743  1
  Li  Li41  1  0.00689046  0.43630196  0.43024466  1
  Li  Li42  1  0.99307535  0.93630582  0.06979743  1
  Li  Li43  1  0.49310954  0.56369804  0.93024466  1
  Be  Be44  1  0.61008463  0.41236829  0.63104700  1
  Be  Be45  1  0.11010063  0.08760830  0.36894769  1
  Be  Be46  1  0.88991537  0.58763171  0.13104700  1
  Be  Be47  1  0.38989937  0.91239170  0.86894769  1
  Be  Be48  1  0.41218109  0.29433879  0.81424912  1
  Be  Be49  1  0.91217694  0.20565452  0.18575840  1
  Be  Be50  1  0.08781891  0.70566121  0.31424912  1
  Be  Be51  1  0.58782306  0.79434548  0.68575840  1
  Be  Be52  1  0.60613900  0.15320715  0.64357994  1
  Be  Be53  1  0.10621269  0.34673910  0.35639749  1
  Be  Be54  1  0.89386100  0.84679285  0.14357994  1
  Be  Be55  1  0.39378731  0.65326090  0.85639749  1
