# generated using pymatgen
data_H2He3
_symmetry_space_group_name_H-M   'P 1'
_cell_length_a   9.18462759
_cell_length_b   9.18462759
_cell_length_c   9.18462759
_cell_angle_alpha   109.47122063
_cell_angle_beta   109.47122063
_cell_angle_gamma   109.47122063
_symmetry_Int_Tables_number   1
_chemical_formula_structural   H2He3
_chemical_formula_sum   'H16 He24'
_cell_volume   596.43451052
_cell_formula_units_Z   8
loop_
 _symmetry_equiv_pos_site_id
 _symmetry_equiv_pos_as_xyz
  1  'x, y, z'
loop_
 _atom_site_type_symbol
 _atom_site_label
 _atom_site_symmetry_multiplicity
 _atom_site_fract_x
 _atom_site_fract_y
 _atom_site_fract_z
 _atom_site_occupancy
  H  H0  1  0.50000000  0.50000000  0.50000000  1
  H  H1  1  0.50000000  -0.00000000  0.00000000  1
  H  H2  1  0.00000000  0.50000000  0.00000000  1
  H  H3  1  0.00000000  -0.00000000  0.50000000  1
  H  H4  1  0.75000000  0.03284273  0.78284273  1
  H  H5  1  0.25000000  0.46715727  0.71715727  1
  H  H6  1  0.03284273  0.78284273  0.75000000  1
  H  H7  1  0.46715727  0.71715727  0.25000000  1
  H  H8  1  0.78284273  0.75000000  0.03284273  1
  H  H9  1  0.71715727  0.25000000  0.46715727  1
  H  H10  1  0.25000000  0.96715727  0.21715727  1
  H  H11  1  0.75000000  0.53284273  0.28284273  1
  H  H12  1  0.96715727  0.21715727  0.25000000  1
  H  H13  1  0.53284273  0.28284273  0.75000000  1
  H  H14  1  0.21715727  0.25000000  0.96715727  1
  H  H15  1  0.28284273  0.75000000  0.53284273  1
  He  He16  1  0.46856773  0.45743745  0.22925588  1
  He  He17  1  0.27181843  0.04256255  0.01113028  1
  He  He18  1  0.22818157  0.73931185  0.27074412  1
  He  He19  1  0.03143227  0.76068815  0.48886972  1
  He  He20  1  0.45743745  0.22925588  0.46856773  1
  He  He21  1  0.04256255  0.01113028  0.27181843  1
  He  He22  1  0.73931185  0.27074412  0.22818157  1
  He  He23  1  0.76068815  0.48886972  0.03143227  1
  He  He24  1  0.22925588  0.46856773  0.45743745  1
  He  He25  1  0.01113028  0.27181843  0.04256255  1
  He  He26  1  0.27074412  0.22818157  0.73931185  1
  He  He27  1  0.48886972  0.03143227  0.76068815  1
  He  He28  1  0.53143227  0.54256255  0.77074412  1
  He  He29  1  0.72818157  0.95743745  0.98886972  1
  He  He30  1  0.77181843  0.26068815  0.72925588  1
  He  He31  1  0.96856773  0.23931185  0.51113028  1
  He  He32  1  0.54256255  0.77074412  0.53143227  1
  He  He33  1  0.95743745  0.98886972  0.72818157  1
  He  He34  1  0.26068815  0.72925588  0.77181843  1
  He  He35  1  0.23931185  0.51113028  0.96856773  1
  He  He36  1  0.77074412  0.53143227  0.54256255  1
  He  He37  1  0.98886972  0.72818157  0.95743745  1
  He  He38  1  0.72925588  0.77181843  0.26068815  1
  He  He39  1  0.51113028  0.96856773  0.23931185  1
