# generated using pymatgen
data_HHeLi
_symmetry_space_group_name_H-M   'P 1'
_cell_length_a   6.04206896
_cell_length_b   8.95062881
_cell_length_c   11.46771265
_cell_angle_alpha   90.00000000
_cell_angle_beta   90.00000000
_cell_angle_gamma   90.00000000
_symmetry_Int_Tables_number   1
_chemical_formula_structural   HHeLi
_chemical_formula_sum   'H8 He8 Li8'
_cell_volume   620.17752925
_cell_formula_units_Z   8
loop_
 _symmetry_equiv_pos_site_id
 _symmetry_equiv_pos_as_xyz
  1  'x, y, z'
loop_
 _atom_site_type_symbol
 _atom_site_label
 _atom_site_symmetry_multiplicity
 _atom_site_fract_x
 _atom_site_fract_y
 _atom_site_fract_z
 _atom_site_occupancy
  H  H0  1  0.25000000  0.97505645  0.34944717  1
  H  H1  1  0.75000000  0.52494355  0.84944717  1
  H  H2  1  0.75000000  0.02494355  0.65055283  1
  H  H3  1  0.25000000  0.47505645  0.15055283  1
  H  H4  1  0.25000000  0.88318056  0.92474459  1
  H  H5  1  0.75000000  0.61681944  0.42474459  1
  H  H6  1  0.75000000  0.11681944  0.07525541  1
  H  H7  1  0.25000000  0.38318056  0.57525541  1
  He  He8  1  0.25000000  0.35074230  0.93095851  1
  He  He9  1  0.75000000  0.14925770  0.43095851  1
  He  He10  1  0.75000000  0.64925770  0.06904149  1
  He  He11  1  0.25000000  0.85074230  0.56904149  1
  He  He12  1  0.25000000  0.20005462  0.97836916  1
  He  He13  1  0.75000000  0.29994538  0.47836916  1
  He  He14  1  0.75000000  0.79994538  0.02163084  1
  He  He15  1  0.25000000  0.70005462  0.52163084  1
  Li  Li16  1  0.05503034  0.21426099  0.83622123  1
  Li  Li17  1  0.94496966  0.28573901  0.33622123  1
  Li  Li18  1  0.55503034  0.78573901  0.16377877  1
  Li  Li19  1  0.44496966  0.71426099  0.66377877  1
  Li  Li20  1  0.94496966  0.78573901  0.16377877  1
  Li  Li21  1  0.05503034  0.71426099  0.66377877  1
  Li  Li22  1  0.44496966  0.21426099  0.83622123  1
  Li  Li23  1  0.55503034  0.28573901  0.33622123  1
