# generated using pymatgen
data_HHe3Li
_symmetry_space_group_name_H-M   'P 1'
_cell_length_a   5.20925573
_cell_length_b   6.18583440
_cell_length_c   8.02471807
_cell_angle_alpha   90.00000000
_cell_angle_beta   90.00000000
_cell_angle_gamma   90.00000000
_symmetry_Int_Tables_number   1
_chemical_formula_structural   HHe3Li
_chemical_formula_sum   'H4 He12 Li4'
_cell_volume   258.58525139
_cell_formula_units_Z   4
loop_
 _symmetry_equiv_pos_site_id
 _symmetry_equiv_pos_as_xyz
  1  'x, y, z'
loop_
 _atom_site_type_symbol
 _atom_site_label
 _atom_site_symmetry_multiplicity
 _atom_site_fract_x
 _atom_site_fract_y
 _atom_site_fract_z
 _atom_site_occupancy
  H  H0  1  0.50000000  0.00000000  0.00000000  1
  H  H1  1  0.00000000  0.50000000  0.00000000  1
  H  H2  1  0.50000000  0.00000000  0.50000000  1
  H  H3  1  0.00000000  0.50000000  0.50000000  1
  He  He4  1  0.68891013  0.07903385  0.75000000  1
  He  He5  1  0.18891013  0.42096615  0.25000000  1
  He  He6  1  0.31108987  0.92096615  0.25000000  1
  He  He7  1  0.81108987  0.57903385  0.75000000  1
  He  He8  1  0.13564834  0.18106849  0.91685396  1
  He  He9  1  0.63564834  0.31893151  0.08314604  1
  He  He10  1  0.86435166  0.81893151  0.41685396  1
  He  He11  1  0.36435166  0.68106849  0.58314604  1
  He  He12  1  0.86435166  0.81893151  0.08314604  1
  He  He13  1  0.36435166  0.68106849  0.91685396  1
  He  He14  1  0.13564834  0.18106849  0.58314604  1
  He  He15  1  0.63564834  0.31893151  0.41685396  1
  Li  Li16  1  0.01776133  0.02655323  0.75000000  1
  Li  Li17  1  0.51776133  0.47344677  0.25000000  1
  Li  Li18  1  0.98223867  0.97344677  0.25000000  1
  Li  Li19  1  0.48223867  0.52655323  0.75000000  1
