# generated using pymatgen
data_HHe2Li3(Be4B)3
_symmetry_space_group_name_H-M   'P 1'
_cell_length_a   8.52181401
_cell_length_b   8.52181401
_cell_length_c   6.51671068
_cell_angle_alpha   73.60543886
_cell_angle_beta   73.60543886
_cell_angle_gamma   91.17120742
_symmetry_Int_Tables_number   1
_chemical_formula_structural   HHe2Li3(Be4B)3
_chemical_formula_sum   'H2 He4 Li6 Be24 B6'
_cell_volume   432.96616095
_cell_formula_units_Z   2
loop_
 _symmetry_equiv_pos_site_id
 _symmetry_equiv_pos_as_xyz
  1  'x, y, z'
loop_
 _atom_site_type_symbol
 _atom_site_label
 _atom_site_symmetry_multiplicity
 _atom_site_fract_x
 _atom_site_fract_y
 _atom_site_fract_z
 _atom_site_occupancy
  H  H0  1  0.46118296  0.53881704  0.25000000  1
  H  H1  1  0.53881704  0.46118296  0.75000000  1
  He  He2  1  0.10807274  0.12196786  0.19086938  1
  He  He3  1  0.87803214  0.89192726  0.30913062  1
  He  He4  1  0.89192726  0.87803214  0.80913062  1
  He  He5  1  0.12196786  0.10807274  0.69086938  1
  Li  Li6  1  0.77536712  0.22463288  0.25000000  1
  Li  Li7  1  0.22463288  0.77536712  0.75000000  1
  Li  Li8  1  0.87520417  0.54947197  0.37703557  1
  Li  Li9  1  0.45052803  0.12479583  0.12296443  1
  Li  Li10  1  0.12479583  0.45052803  0.62296443  1
  Li  Li11  1  0.54947197  0.87520417  0.87703557  1
  Be  Be12  1  0.99758481  0.78612195  0.26675599  1
  Be  Be13  1  0.21387805  0.00241519  0.23324401  1
  Be  Be14  1  0.00241519  0.21387805  0.73324401  1
  Be  Be15  1  0.78612195  0.99758481  0.76675599  1
  Be  Be16  1  0.22113532  0.70894730  0.46332452  1
  Be  Be17  1  0.29105270  0.77886468  0.03667548  1
  Be  Be18  1  0.77886468  0.29105270  0.53667548  1
  Be  Be19  1  0.70894730  0.22113532  0.96332452  1
  Be  Be20  1  0.83004824  0.48420173  0.11361042  1
  Be  Be21  1  0.51579827  0.16995176  0.38638958  1
  Be  Be22  1  0.16995176  0.51579827  0.88638958  1
  Be  Be23  1  0.48420173  0.83004824  0.61361042  1
  Be  Be24  1  0.10064730  0.46330628  0.30849248  1
  Be  Be25  1  0.53669372  0.89935270  0.19150752  1
  Be  Be26  1  0.89935270  0.53669372  0.69150752  1
  Be  Be27  1  0.46330628  0.10064730  0.80849248  1
  Be  Be28  1  0.66246159  0.66164564  0.39491811  1
  Be  Be29  1  0.33835436  0.33753841  0.10508189  1
  Be  Be30  1  0.33753841  0.33835436  0.60508189  1
  Be  Be31  1  0.66164564  0.66246159  0.89491811  1
  Be  Be32  1  0.04476356  0.23096858  0.15578833  1
  Be  Be33  1  0.76903142  0.95523644  0.34421167  1
  Be  Be34  1  0.95523644  0.76903142  0.84421167  1
  Be  Be35  1  0.23096858  0.04476356  0.65578833  1
  B  B36  1  0.18162840  0.81837160  0.25000000  1
  B  B37  1  0.81837160  0.18162840  0.75000000  1
  B  B38  1  0.16583794  0.39102094  0.11280552  1
  B  B39  1  0.60897906  0.83416206  0.38719448  1
  B  B40  1  0.83416206  0.60897906  0.88719448  1
  B  B41  1  0.39102094  0.16583794  0.61280552  1
