# generated using pymatgen
data_HHe3Li
_symmetry_space_group_name_H-M   'P 1'
_cell_length_a   6.90941346
_cell_length_b   6.90941346
_cell_length_c   6.90941346
_cell_angle_alpha   90.00000000
_cell_angle_beta   90.00000000
_cell_angle_gamma   90.00000000
_symmetry_Int_Tables_number   1
_chemical_formula_structural   HHe3Li
_chemical_formula_sum   'H4 He12 Li4'
_cell_volume   329.85535910
_cell_formula_units_Z   4
loop_
 _symmetry_equiv_pos_site_id
 _symmetry_equiv_pos_as_xyz
  1  'x, y, z'
loop_
 _atom_site_type_symbol
 _atom_site_label
 _atom_site_symmetry_multiplicity
 _atom_site_fract_x
 _atom_site_fract_y
 _atom_site_fract_z
 _atom_site_occupancy
  H  H0  1  0.01335289  0.01335289  0.01335289  1
  H  H1  1  0.48664711  0.98664711  0.51335289  1
  H  H2  1  0.98664711  0.51335289  0.48664711  1
  H  H3  1  0.51335289  0.48664711  0.98664711  1
  He  He4  1  0.12079740  0.14544735  0.39075887  1
  He  He5  1  0.37920260  0.85455265  0.89075887  1
  He  He6  1  0.87920260  0.64544735  0.10924113  1
  He  He7  1  0.62079740  0.35455265  0.60924113  1
  He  He8  1  0.39075887  0.12079740  0.14544735  1
  He  He9  1  0.89075887  0.37920260  0.85455265  1
  He  He10  1  0.10924113  0.87920260  0.64544735  1
  He  He11  1  0.60924113  0.62079740  0.35455265  1
  He  He12  1  0.14544735  0.39075887  0.12079740  1
  He  He13  1  0.85455265  0.89075887  0.37920260  1
  He  He14  1  0.64544735  0.10924113  0.87920260  1
  He  He15  1  0.35455265  0.60924113  0.62079740  1
  Li  Li16  1  0.75296017  0.75296017  0.75296017  1
  Li  Li17  1  0.74703983  0.24703983  0.25296017  1
  Li  Li18  1  0.24703983  0.25296017  0.74703983  1
  Li  Li19  1  0.25296017  0.74703983  0.24703983  1
