# generated using pymatgen
data_H4HeLi
_symmetry_space_group_name_H-M   'P 1'
_cell_length_a   7.20834181
_cell_length_b   7.20834181
_cell_length_c   7.20834181
_cell_angle_alpha   135.12103288
_cell_angle_beta   135.12103288
_cell_angle_gamma   65.34219980
_symmetry_Int_Tables_number   1
_chemical_formula_structural   H4HeLi
_chemical_formula_sum   'H8 He2 Li2'
_cell_volume   183.75007447
_cell_formula_units_Z   2
loop_
 _symmetry_equiv_pos_site_id
 _symmetry_equiv_pos_as_xyz
  1  'x, y, z'
loop_
 _atom_site_type_symbol
 _atom_site_label
 _atom_site_symmetry_multiplicity
 _atom_site_fract_x
 _atom_site_fract_y
 _atom_site_fract_z
 _atom_site_occupancy
  H  H0  1  0.05781377  0.68114926  0.90351820  1
  H  H1  1  0.77763106  0.15429558  0.09648180  1
  H  H2  1  0.40429558  0.80781377  0.87666452  1
  H  H3  1  0.93114926  0.52763106  0.12333548  1
  H  H4  1  0.19218623  0.06885074  0.59648180  1
  H  H5  1  0.47236894  0.59570442  0.40351820  1
  H  H6  1  0.84570442  0.94218623  0.62333548  1
  H  H7  1  0.31885074  0.22236894  0.37666452  1
  He  He8  1  0.50000000  0.50000000  -0.00000000  1
  He  He9  1  0.75000000  0.25000000  0.50000000  1
  Li  Li10  1  0.00000000  -0.00000000  0.00000000  1
  Li  Li11  1  0.25000000  0.75000000  0.50000000  1
