# generated using pymatgen
data_H5He
_symmetry_space_group_name_H-M   'P 1'
_cell_length_a   9.44048124
_cell_length_b   4.96278354
_cell_length_c   5.36422340
_cell_angle_alpha   77.79332875
_cell_angle_beta   90.00000000
_cell_angle_gamma   90.00000000
_symmetry_Int_Tables_number   1
_chemical_formula_structural   H5He
_chemical_formula_sum   'H10 He2'
_cell_volume   245.63756550
_cell_formula_units_Z   2
loop_
 _symmetry_equiv_pos_site_id
 _symmetry_equiv_pos_as_xyz
  1  'x, y, z'
loop_
 _atom_site_type_symbol
 _atom_site_label
 _atom_site_symmetry_multiplicity
 _atom_site_fract_x
 _atom_site_fract_y
 _atom_site_fract_z
 _atom_site_occupancy
  H  H0  1  0.59248665  0.61632846  0.04439988  1
  H  H1  1  0.09248665  0.38367154  0.95560012  1
  H  H2  1  0.40751335  0.38367154  0.95560012  1
  H  H3  1  0.90751335  0.61632846  0.04439988  1
  H  H4  1  0.52859882  0.71385756  0.40464788  1
  H  H5  1  0.02859882  0.28614244  0.59535212  1
  H  H6  1  0.47140118  0.28614244  0.59535212  1
  H  H7  1  0.97140118  0.71385756  0.40464788  1
  H  H8  1  0.25000000  0.72281398  0.89385033  1
  H  H9  1  0.75000000  0.27718602  0.10614967  1
  He  He10  1  0.25000000  0.99522596  0.34742899  1
  He  He11  1  0.75000000  0.00477404  0.65257101  1
