# generated using pymatgen
data_H8He4Li
_symmetry_space_group_name_H-M   'P 1'
_cell_length_a   5.77470778
_cell_length_b   9.74069605
_cell_length_c   9.74005369
_cell_angle_alpha   90.00000000
_cell_angle_beta   90.00000000
_cell_angle_gamma   90.00000000
_symmetry_Int_Tables_number   1
_chemical_formula_structural   H8He4Li
_chemical_formula_sum   'H32 He16 Li4'
_cell_volume   547.87483795
_cell_formula_units_Z   4
loop_
 _symmetry_equiv_pos_site_id
 _symmetry_equiv_pos_as_xyz
  1  'x, y, z'
loop_
 _atom_site_type_symbol
 _atom_site_label
 _atom_site_symmetry_multiplicity
 _atom_site_fract_x
 _atom_site_fract_y
 _atom_site_fract_z
 _atom_site_occupancy
  H  H0  1  0.85238461  0.01943973  0.88386590  1
  H  H1  1  0.35238461  0.48056027  0.11613410  1
  H  H2  1  0.14761539  0.98056027  0.38386590  1
  H  H3  1  0.64761539  0.51943973  0.61613410  1
  H  H4  1  0.14761539  0.98056027  0.11613410  1
  H  H5  1  0.64761539  0.51943973  0.88386590  1
  H  H6  1  0.85238461  0.01943973  0.61613410  1
  H  H7  1  0.35238461  0.48056027  0.38386590  1
  H  H8  1  0.39865841  0.02267450  0.87871174  1
  H  H9  1  0.89865841  0.47732550  0.12128826  1
  H  H10  1  0.60134159  0.97732550  0.37871174  1
  H  H11  1  0.10134159  0.52267450  0.62128826  1
  H  H12  1  0.60134159  0.97732550  0.12128826  1
  H  H13  1  0.10134159  0.52267450  0.87871174  1
  H  H14  1  0.39865841  0.02267450  0.62128826  1
  H  H15  1  0.89865841  0.47732550  0.37871174  1
  H  H16  1  0.62901611  0.23418445  0.53702776  1
  H  H17  1  0.12901611  0.26581555  0.46297224  1
  H  H18  1  0.37098389  0.76581555  0.03702776  1
  H  H19  1  0.87098389  0.73418445  0.96297224  1
  H  H20  1  0.37098389  0.76581555  0.46297224  1
  H  H21  1  0.87098389  0.73418445  0.53702776  1
  H  H22  1  0.62901611  0.23418445  0.96297224  1
  H  H23  1  0.12901611  0.26581555  0.03702776  1
  H  H24  1  0.88047755  0.28540487  0.75000000  1
  H  H25  1  0.38047755  0.21459513  0.25000000  1
  H  H26  1  0.11952245  0.71459513  0.25000000  1
  H  H27  1  0.61952245  0.78540487  0.75000000  1
  H  H28  1  0.38290060  0.28895354  0.75000000  1
  H  H29  1  0.88290060  0.21104646  0.25000000  1
  H  H30  1  0.61709940  0.71104646  0.25000000  1
  H  H31  1  0.11709940  0.78895354  0.75000000  1
  He  He32  1  0.88240221  0.36904930  0.94144511  1
  He  He33  1  0.38240221  0.13095070  0.05855489  1
  He  He34  1  0.11759779  0.63095070  0.44144511  1
  He  He35  1  0.61759779  0.86904930  0.55855489  1
  He  He36  1  0.11759779  0.63095070  0.05855489  1
  He  He37  1  0.61759779  0.86904930  0.94144511  1
  He  He38  1  0.88240221  0.36904930  0.55855489  1
  He  He39  1  0.38240221  0.13095070  0.44144511  1
  He  He40  1  0.37006300  0.39820365  0.91903333  1
  He  He41  1  0.87006300  0.10179635  0.08096667  1
  He  He42  1  0.62993700  0.60179635  0.41903333  1
  He  He43  1  0.12993700  0.89820365  0.58096667  1
  He  He44  1  0.62993700  0.60179635  0.08096667  1
  He  He45  1  0.12993700  0.89820365  0.91903333  1
  He  He46  1  0.37006300  0.39820365  0.58096667  1
  He  He47  1  0.87006300  0.10179635  0.41903333  1
  Li  Li48  1  0.63008942  0.13469173  0.75000000  1
  Li  Li49  1  0.13008942  0.36530827  0.25000000  1
  Li  Li50  1  0.36991058  0.86530827  0.25000000  1
  Li  Li51  1  0.86991058  0.63469173  0.75000000  1
