# generated using pymatgen
data_H13He3(Li4Be)2
_symmetry_space_group_name_H-M   'P 1'
_cell_length_a   8.52638845
_cell_length_b   8.52638845
_cell_length_c   10.23255243
_cell_angle_alpha   80.97609260
_cell_angle_beta   80.97609260
_cell_angle_gamma   39.77892000
_symmetry_Int_Tables_number   1
_chemical_formula_structural   H13He3(Li4Be)2
_chemical_formula_sum   'H26 He6 Li16 Be4'
_cell_volume   469.29931210
_cell_formula_units_Z   2
loop_
 _symmetry_equiv_pos_site_id
 _symmetry_equiv_pos_as_xyz
  1  'x, y, z'
loop_
 _atom_site_type_symbol
 _atom_site_label
 _atom_site_symmetry_multiplicity
 _atom_site_fract_x
 _atom_site_fract_y
 _atom_site_fract_z
 _atom_site_occupancy
  H  H0  1  0.57926896  0.90301900  0.65454771  1
  H  H1  1  0.09698100  0.42073104  0.84545229  1
  H  H2  1  0.42073104  0.09698100  0.34545229  1
  H  H3  1  0.90301900  0.57926896  0.15454771  1
  H  H4  1  0.05865834  0.86427004  0.81920316  1
  H  H5  1  0.13572996  0.94134166  0.68079684  1
  H  H6  1  0.94134166  0.13572996  0.18079684  1
  H  H7  1  0.86427004  0.05865834  0.31920316  1
  H  H8  1  0.43532329  0.19610379  0.63536344  1
  H  H9  1  0.80389621  0.56467671  0.86463656  1
  H  H10  1  0.56467671  0.80389621  0.36463656  1
  H  H11  1  0.19610379  0.43532329  0.13536344  1
  H  H12  1  0.72376233  0.95059790  0.56933082  1
  H  H13  1  0.04940210  0.27623767  0.93066918  1
  H  H14  1  0.27623767  0.04940210  0.43066918  1
  H  H15  1  0.95059790  0.72376233  0.06933082  1
  H  H16  1  0.67029804  -0.02121369  0.73618179  1
  H  H17  1  0.02121369  0.32970196  0.76381821  1
  H  H18  1  0.32970196  0.02121369  0.26381821  1
  H  H19  1  -0.02121369  0.67029804  0.23618179  1
  H  H20  1  0.26159363  0.65943747  0.70477319  1
  H  H21  1  0.34056253  0.73840637  0.79522681  1
  H  H22  1  0.73840637  0.34056253  0.29522681  1
  H  H23  1  0.65943747  0.26159363  0.20477319  1
  H  H24  1  0.50000000  0.50000000  0.50000000  1
  H  H25  1  0.50000000  0.50000000  0.00000000  1
  He  He26  1  0.19908653  0.80091347  0.75000000  1
  He  He27  1  0.80091347  0.19908653  0.25000000  1
  He  He28  1  0.60065184  0.00816263  0.64943074  1
  He  He29  1  0.99183737  0.39934816  0.85056926  1
  He  He30  1  0.39934816  0.99183737  0.35056926  1
  He  He31  1  0.00816263  0.60065184  0.14943074  1
  Li  Li32  1  0.68878760  0.34637180  0.55769095  1
  Li  Li33  1  0.65362820  0.31121240  0.94230905  1
  Li  Li34  1  0.31121240  0.65362820  0.44230905  1
  Li  Li35  1  0.34637180  0.68878760  0.05769095  1
  Li  Li36  1  0.82610275  0.47245291  0.39875354  1
  Li  Li37  1  0.52754709  0.17389725  0.10124646  1
  Li  Li38  1  0.17389725  0.52754709  0.60124646  1
  Li  Li39  1  0.47245291  0.82610275  0.89875354  1
  Li  Li40  1  0.66177344  0.63229211  0.62022362  1
  Li  Li41  1  0.36770789  0.33822656  0.87977638  1
  Li  Li42  1  0.33822656  0.36770789  0.37977638  1
  Li  Li43  1  0.63229211  0.66177344  0.12022362  1
  Li  Li44  1  0.06070594  0.19841446  0.59318762  1
  Li  Li45  1  0.80158554  0.93929406  0.90681238  1
  Li  Li46  1  0.93929406  0.80158554  0.40681238  1
  Li  Li47  1  0.19841446  0.06070594  0.09318762  1
  Be  Be48  1  0.81072158  0.41792130  0.54220298  1
  Be  Be49  1  0.58207870  0.18927842  0.95779702  1
  Be  Be50  1  0.18927842  0.58207870  0.45779702  1
  Be  Be51  1  0.41792130  0.81072158  0.04220298  1
