# generated using pymatgen
data_H2He4Li2(Be4B)3
_symmetry_space_group_name_H-M   'P 1'
_cell_length_a   13.21806392
_cell_length_b   9.98488901
_cell_length_c   9.84936342
_cell_angle_alpha   83.58066063
_cell_angle_beta   48.64767514
_cell_angle_gamma   47.77166423
_symmetry_Int_Tables_number   1
_chemical_formula_structural   H2He4Li2(Be4B)3
_chemical_formula_sum   'H4 He8 Li4 Be24 B6'
_cell_volume   579.28109885
_cell_formula_units_Z   2
loop_
 _symmetry_equiv_pos_site_id
 _symmetry_equiv_pos_as_xyz
  1  'x, y, z'
loop_
 _atom_site_type_symbol
 _atom_site_label
 _atom_site_symmetry_multiplicity
 _atom_site_fract_x
 _atom_site_fract_y
 _atom_site_fract_z
 _atom_site_occupancy
  H  H0  1  0.52069655  0.66677852  0.55432021  1
  H  H1  1  0.25820472  0.55432021  0.66677852  1
  H  H2  1  0.58322148  0.72930345  0.99179528  1
  H  H3  1  0.69567979  0.99179528  0.72930345  1
  He  He4  1  0.15992213  0.12735088  0.94605768  1
  He  He5  1  0.76666931  0.94605768  0.12735088  1
  He  He6  1  0.12264912  0.09007787  0.48333069  1
  He  He7  1  0.30394232  0.48333069  0.09007787  1
  He  He8  1  0.11228018  0.26824091  0.09349187  1
  He  He9  1  0.52598704  0.09349187  0.26824091  1
  He  He10  1  0.98175909  0.13771982  0.72401296  1
  He  He11  1  0.15650813  0.72401296  0.13771982  1
  Li  Li12  1  0.63707748  0.42330208  0.80346701  1
  Li  Li13  1  0.13615342  0.80346701  0.42330208  1
  Li  Li14  1  0.82669792  0.61292252  0.11384658  1
  Li  Li15  1  0.44653299  0.11384658  0.61292252  1
  Be  Be16  1  0.22850463  0.90981284  0.81721816  1
  Be  Be17  1  0.04446436  0.81721816  0.90981284  1
  Be  Be18  1  0.34018716  0.02149537  0.20553564  1
  Be  Be19  1  0.43278184  0.20553564  0.02149537  1
  Be  Be20  1  0.64704907  0.71626654  0.49406705  1
  Be  Be21  1  0.14261734  0.49406705  0.71626654  1
  Be  Be22  1  0.53373346  0.60295093  0.10738266  1
  Be  Be23  1  0.75593295  0.10738266  0.60295093  1
  Be  Be24  1  0.63693292  0.43257968  0.55995426  1
  Be  Be25  1  0.37053314  0.55995426  0.43257968  1
  Be  Be26  1  0.81742032  0.61306708  0.87946686  1
  Be  Be27  1  0.69004574  0.87946686  0.61306708  1
  Be  Be28  1  0.63817653  0.66624319  0.77522851  1
  Be  Be29  1  0.92035177  0.77522851  0.66624319  1
  Be  Be30  1  0.58375681  0.61182347  0.32964823  1
  Be  Be31  1  0.47477149  0.32964823  0.61182347  1
  Be  Be32  1  0.02310304  0.43143806  0.33656439  1
  Be  Be33  1  0.20889451  0.33656439  0.43143806  1
  Be  Be34  1  0.81856194  0.22689696  0.04110549  1
  Be  Be35  1  0.91343561  0.04110549  0.22689696  1
  Be  Be36  1  0.13737312  0.24159257  0.97593755  1
  Be  Be37  1  0.64509676  0.97593755  0.24159257  1
  Be  Be38  1  0.00840743  0.11262688  0.60490324  1
  Be  Be39  1  0.27406245  0.60490324  0.11262688  1
  B  B40  1  0.00455522  0.99544478  0.99544478  1
  B  B41  1  0.25455522  0.24544478  0.24544478  1
  B  B42  1  0.74578631  0.67613595  0.56110730  1
  B  B43  1  0.01697044  0.56110730  0.67613595  1
  B  B44  1  0.57386405  0.50421369  0.23302956  1
  B  B45  1  0.68889270  0.23302956  0.50421369  1
