# generated using pymatgen
data_H3He4
_symmetry_space_group_name_H-M   'P 1'
_cell_length_a   4.02768457
_cell_length_b   4.02768457
_cell_length_c   12.19393127
_cell_angle_alpha   80.76496818
_cell_angle_beta   80.76496818
_cell_angle_gamma   59.99660119
_symmetry_Int_Tables_number   1
_chemical_formula_structural   H3He4
_chemical_formula_sum   'H3 He4'
_cell_volume   168.33820185
_cell_formula_units_Z   1
loop_
 _symmetry_equiv_pos_site_id
 _symmetry_equiv_pos_as_xyz
  1  'x, y, z'
loop_
 _atom_site_type_symbol
 _atom_site_label
 _atom_site_symmetry_multiplicity
 _atom_site_fract_x
 _atom_site_fract_y
 _atom_site_fract_z
 _atom_site_occupancy
  H  H0  1  0.50000000  0.50000000  0.50000000  1
  H  H1  1  0.64744338  0.64744338  0.06041087  1
  H  H2  1  0.35255662  0.35255662  0.93958913  1
  He  He3  1  0.94778792  0.94778792  0.16232683  1
  He  He4  1  0.05221208  0.05221208  0.83767317  1
  He  He5  1  0.20385839  0.20385839  0.38466103  1
  He  He6  1  0.79614161  0.79614161  0.61533897  1
