# generated using pymatgen
data_HHe4Li6
_symmetry_space_group_name_H-M   'P 1'
_cell_length_a   8.51407131
_cell_length_b   8.51407131
_cell_length_c   8.51407131
_cell_angle_alpha   41.24517905
_cell_angle_beta   41.24517905
_cell_angle_gamma   41.24517905
_symmetry_Int_Tables_number   1
_chemical_formula_structural   HHe4Li6
_chemical_formula_sum   'H1 He4 Li6'
_cell_volume   242.29579140
_cell_formula_units_Z   1
loop_
 _symmetry_equiv_pos_site_id
 _symmetry_equiv_pos_as_xyz
  1  'x, y, z'
loop_
 _atom_site_type_symbol
 _atom_site_label
 _atom_site_symmetry_multiplicity
 _atom_site_fract_x
 _atom_site_fract_y
 _atom_site_fract_z
 _atom_site_occupancy
  H  H0  1  0.00000000  0.00000000  0.00000000  1
  He  He1  1  0.33213483  0.33213483  0.33213483  1
  He  He2  1  0.66786517  0.66786517  0.66786517  1
  He  He3  1  0.12791091  0.12791091  0.12791091  1
  He  He4  1  0.87208909  0.87208909  0.87208909  1
  Li  Li5  1  0.60046058  0.60046058  0.11324361  1
  Li  Li6  1  0.11324361  0.60046058  0.60046058  1
  Li  Li7  1  0.60046058  0.11324361  0.60046058  1
  Li  Li8  1  0.39953942  0.39953942  0.88675639  1
  Li  Li9  1  0.39953942  0.88675639  0.39953942  1
  Li  Li10  1  0.88675639  0.39953942  0.39953942  1
