# generated using pymatgen
data_HHe3
_symmetry_space_group_name_H-M   'P 1'
_cell_length_a   4.71404945
_cell_length_b   4.71404945
_cell_length_c   8.52999531
_cell_angle_alpha   90.00000000
_cell_angle_beta   90.00000000
_cell_angle_gamma   120.00609752
_symmetry_Int_Tables_number   1
_chemical_formula_structural   HHe3
_chemical_formula_sum   'H2 He6'
_cell_volume   164.15004439
_cell_formula_units_Z   2
loop_
 _symmetry_equiv_pos_site_id
 _symmetry_equiv_pos_as_xyz
  1  'x, y, z'
loop_
 _atom_site_type_symbol
 _atom_site_label
 _atom_site_symmetry_multiplicity
 _atom_site_fract_x
 _atom_site_fract_y
 _atom_site_fract_z
 _atom_site_occupancy
  H  H0  1  0.33331589  0.66668411  0.25000000  1
  H  H1  1  0.66668411  0.33331589  0.75000000  1
  He  He2  1  0.99998042  0.00001958  0.25000000  1
  He  He3  1  0.00001958  0.99998042  0.75000000  1
  He  He4  1  0.33333331  0.66666669  0.57615565  1
  He  He5  1  0.66666669  0.33333331  0.07615565  1
  He  He6  1  0.66666669  0.33333331  0.42384435  1
  He  He7  1  0.33333331  0.66666669  0.92384435  1
