# generated using pymatgen
data_HHeLi6Be
_symmetry_space_group_name_H-M   'P 1'
_cell_length_a   5.18174734
_cell_length_b   5.18174734
_cell_length_c   9.75243347
_cell_angle_alpha   89.99829646
_cell_angle_beta   89.99829646
_cell_angle_gamma   120.00082454
_symmetry_Int_Tables_number   1
_chemical_formula_structural   HHeLi6Be
_chemical_formula_sum   'H2 He2 Li12 Be2'
_cell_volume   226.77359477
_cell_formula_units_Z   2
loop_
 _symmetry_equiv_pos_site_id
 _symmetry_equiv_pos_as_xyz
  1  'x, y, z'
loop_
 _atom_site_type_symbol
 _atom_site_label
 _atom_site_symmetry_multiplicity
 _atom_site_fract_x
 _atom_site_fract_y
 _atom_site_fract_z
 _atom_site_occupancy
  H  H0  1  0.33333538  0.66666462  0.25000000  1
  H  H1  1  0.66666462  0.33333538  0.75000000  1
  He  He2  1  0.00000000  0.00000000  0.00000000  1
  He  He3  1  0.00000000  0.00000000  0.50000000  1
  Li  Li4  1  0.99034928  0.35406611  0.13898808  1
  Li  Li5  1  0.64593421  0.63628322  0.13898926  1
  Li  Li6  1  0.36371980  0.00965237  0.13898842  1
  Li  Li7  1  0.00965072  0.64593389  0.86101192  1
  Li  Li8  1  0.35406579  0.36371678  0.86101074  1
  Li  Li9  1  0.63628020  0.99034763  0.86101158  1
  Li  Li10  1  0.99034763  0.63628020  0.36101158  1
  Li  Li11  1  0.36371678  0.35406579  0.36101074  1
  Li  Li12  1  0.64593389  0.00965072  0.36101192  1
  Li  Li13  1  0.00965237  0.36371980  0.63898842  1
  Li  Li14  1  0.63628322  0.64593421  0.63898926  1
  Li  Li15  1  0.35406611  0.99034928  0.63898808  1
  Be  Be16  1  0.33333542  0.66666458  0.75000000  1
  Be  Be17  1  0.66666458  0.33333542  0.25000000  1
