# generated using pymatgen
data_H3He2
_symmetry_space_group_name_H-M   'P 1'
_cell_length_a   4.03512002
_cell_length_b   4.03512002
_cell_length_c   4.03512002
_cell_angle_alpha   89.61580290
_cell_angle_beta   89.61580290
_cell_angle_gamma   89.61580290
_symmetry_Int_Tables_number   1
_chemical_formula_structural   H3He2
_chemical_formula_sum   'H3 He2'
_cell_volume   65.69619376
_cell_formula_units_Z   1
loop_
 _symmetry_equiv_pos_site_id
 _symmetry_equiv_pos_as_xyz
  1  'x, y, z'
loop_
 _atom_site_type_symbol
 _atom_site_label
 _atom_site_symmetry_multiplicity
 _atom_site_fract_x
 _atom_site_fract_y
 _atom_site_fract_z
 _atom_site_occupancy
  H  H0  1  0.50000000  0.24591105  0.75408895  1
  H  H1  1  0.75408895  0.50000000  0.24591105  1
  H  H2  1  0.24591105  0.75408895  0.50000000  1
  He  He3  1  0.25579291  0.25579291  0.25579291  1
  He  He4  1  0.74420709  0.74420709  0.74420709  1
