# generated using pymatgen
data_H2
_symmetry_space_group_name_H-M   'P 1'
_cell_length_a   5.24790560
_cell_length_b   5.24790560
_cell_length_c   5.37687930
_cell_angle_alpha   90.00000000
_cell_angle_beta   90.00000000
_cell_angle_gamma   124.23723843
_symmetry_Int_Tables_number   1
_chemical_formula_structural   H2
_chemical_formula_sum   H8
_cell_volume   122.42163566
_cell_formula_units_Z   4
loop_
 _symmetry_equiv_pos_site_id
 _symmetry_equiv_pos_as_xyz
  1  'x, y, z'
loop_
 _atom_site_type_symbol
 _atom_site_label
 _atom_site_symmetry_multiplicity
 _atom_site_fract_x
 _atom_site_fract_y
 _atom_site_fract_z
 _atom_site_occupancy
  H  H0  1  -0.00012758  -0.00012758  0.72830443  1
  H  H1  1  0.50012758  0.50012758  0.22830443  1
  H  H2  1  0.49987242  0.49987242  0.77169557  1
  H  H3  1  0.00012758  0.00012758  0.27169557  1
  H  H4  1  0.77598016  0.22401984  -0.00000000  1
  H  H5  1  0.72401984  0.27598016  0.50000000  1
  H  H6  1  0.22401984  0.77598016  -0.00000000  1
  H  H7  1  0.27598016  0.72401984  0.50000000  1
