# generated using pymatgen
data_HHe
_symmetry_space_group_name_H-M   'P 1'
_cell_length_a   3.66187665
_cell_length_b   5.91021164
_cell_length_c   6.37875976
_cell_angle_alpha   90.00000000
_cell_angle_beta   90.00000000
_cell_angle_gamma   90.00000000
_symmetry_Int_Tables_number   1
_chemical_formula_structural   HHe
_chemical_formula_sum   'H4 He4'
_cell_volume   138.05209121
_cell_formula_units_Z   4
loop_
 _symmetry_equiv_pos_site_id
 _symmetry_equiv_pos_as_xyz
  1  'x, y, z'
loop_
 _atom_site_type_symbol
 _atom_site_label
 _atom_site_symmetry_multiplicity
 _atom_site_fract_x
 _atom_site_fract_y
 _atom_site_fract_z
 _atom_site_occupancy
  H  H0  1  0.25000000  0.00278090  0.75521279  1
  H  H1  1  0.75000000  0.49721910  0.25521279  1
  H  H2  1  0.75000000  0.99721910  0.24478721  1
  H  H3  1  0.25000000  0.50278090  0.74478721  1
  He  He4  1  0.25000000  0.24401712  0.41753693  1
  He  He5  1  0.75000000  0.25598288  0.91753693  1
  He  He6  1  0.75000000  0.75598288  0.58246307  1
  He  He7  1  0.25000000  0.74401712  0.08246307  1
