# generated using pymatgen
data_H2He5Li2
_symmetry_space_group_name_H-M   'P 1'
_cell_length_a   6.49850268
_cell_length_b   6.11013342
_cell_length_c   17.51502297
_cell_angle_alpha   90.00000000
_cell_angle_beta   90.00000000
_cell_angle_gamma   90.00000000
_symmetry_Int_Tables_number   1
_chemical_formula_structural   H2He5Li2
_chemical_formula_sum   'H8 He20 Li8'
_cell_volume   695.46408549
_cell_formula_units_Z   4
loop_
 _symmetry_equiv_pos_site_id
 _symmetry_equiv_pos_as_xyz
  1  'x, y, z'
loop_
 _atom_site_type_symbol
 _atom_site_label
 _atom_site_symmetry_multiplicity
 _atom_site_fract_x
 _atom_site_fract_y
 _atom_site_fract_z
 _atom_site_occupancy
  H  H0  1  0.52443376  0.00612534  0.88854558  1
  H  H1  1  0.02443376  0.49387466  0.11145442  1
  H  H2  1  0.47556624  0.99387466  0.38854558  1
  H  H3  1  0.97556624  0.50612534  0.61145442  1
  H  H4  1  0.47556624  0.99387466  0.11145442  1
  H  H5  1  0.97556624  0.50612534  0.88854558  1
  H  H6  1  0.52443376  0.00612534  0.61145442  1
  H  H7  1  0.02443376  0.49387466  0.38854558  1
  He  He8  1  0.78784576  0.25997216  0.00806856  1
  He  He9  1  0.28784576  0.24002784  0.99193144  1
  He  He10  1  0.21215424  0.74002784  0.50806856  1
  He  He11  1  0.71215424  0.75997216  0.49193144  1
  He  He12  1  0.21215424  0.74002784  0.99193144  1
  He  He13  1  0.71215424  0.75997216  0.00806856  1
  He  He14  1  0.78784576  0.25997216  0.49193144  1
  He  He15  1  0.28784576  0.24002784  0.50806856  1
  He  He16  1  0.93137938  0.96754043  0.86071271  1
  He  He17  1  0.43137938  0.53245957  0.13928729  1
  He  He18  1  0.06862062  0.03245957  0.36071271  1
  He  He19  1  0.56862062  0.46754043  0.63928729  1
  He  He20  1  0.06862062  0.03245957  0.13928729  1
  He  He21  1  0.56862062  0.46754043  0.86071271  1
  He  He22  1  0.93137938  0.96754043  0.63928729  1
  He  He23  1  0.43137938  0.53245957  0.36071271  1
  He  He24  1  0.38179186  0.89434687  0.75000000  1
  He  He25  1  0.88179186  0.60565313  0.25000000  1
  He  He26  1  0.61820814  0.10565313  0.25000000  1
  He  He27  1  0.11820814  0.39434687  0.75000000  1
  Li  Li28  1  0.00000000  0.00000000  0.00000000  1
  Li  Li29  1  0.50000000  0.50000000  0.00000000  1
  Li  Li30  1  0.00000000  0.00000000  0.50000000  1
  Li  Li31  1  0.50000000  0.50000000  0.50000000  1
  Li  Li32  1  0.05916735  0.02720157  0.75000000  1
  Li  Li33  1  0.55916735  0.47279843  0.25000000  1
  Li  Li34  1  0.94083265  0.97279843  0.25000000  1
  Li  Li35  1  0.44083265  0.52720157  0.75000000  1
