# generated using pymatgen
data_H2HeLi2
_symmetry_space_group_name_H-M   'P 1'
_cell_length_a   3.18631611
_cell_length_b   3.18629431
_cell_length_c   4.77393055
_cell_angle_alpha   90.00036785
_cell_angle_beta   90.00000388
_cell_angle_gamma   120.00023637
_symmetry_Int_Tables_number   1
_chemical_formula_structural   H2HeLi2
_chemical_formula_sum   'H2 He1 Li2'
_cell_volume   41.97400797
_cell_formula_units_Z   1
loop_
 _symmetry_equiv_pos_site_id
 _symmetry_equiv_pos_as_xyz
  1  'x, y, z'
loop_
 _atom_site_type_symbol
 _atom_site_label
 _atom_site_symmetry_multiplicity
 _atom_site_fract_x
 _atom_site_fract_y
 _atom_site_fract_z
 _atom_site_occupancy
  H  H0  1  0.66666859  0.33333719  0.42204470  1
  H  H1  1  0.33333141  0.66666281  0.57795530  1
  He  He2  1  -0.00000000  0.00000000  0.00000000  1
  Li  Li3  1  0.66666771  0.33333547  0.21860810  1
  Li  Li4  1  0.33333229  0.66666453  0.78139190  1
