# generated using pymatgen
data_H19He5Li7
_symmetry_space_group_name_H-M   'P 1'
_cell_length_a   3.85769948
_cell_length_b   5.65363517
_cell_length_c   32.53006757
_cell_angle_alpha   90.00000000
_cell_angle_beta   90.00000000
_cell_angle_gamma   90.00000000
_symmetry_Int_Tables_number   1
_chemical_formula_structural   H19He5Li7
_chemical_formula_sum   'H19 He5 Li7'
_cell_volume   709.48160214
_cell_formula_units_Z   1
loop_
 _symmetry_equiv_pos_site_id
 _symmetry_equiv_pos_as_xyz
  1  'x, y, z'
loop_
 _atom_site_type_symbol
 _atom_site_label
 _atom_site_symmetry_multiplicity
 _atom_site_fract_x
 _atom_site_fract_y
 _atom_site_fract_z
 _atom_site_occupancy
  H  H0  1  0.00000000  -0.00000000  0.27020073  1
  H  H1  1  0.00000000  0.00000000  0.72979927  1
  H  H2  1  0.50000000  0.76335793  0.21613206  1
  H  H3  1  0.50000000  0.23664207  0.21613206  1
  H  H4  1  0.50000000  0.76335793  0.78386794  1
  H  H5  1  0.50000000  0.23664207  0.78386794  1
  H  H6  1  0.00000000  0.50000000  0.17103798  1
  H  H7  1  0.00000000  0.50000000  0.82896202  1
  H  H8  1  0.50000000  0.24901402  0.13056338  1
  H  H9  1  0.50000000  0.75098598  0.13056338  1
  H  H10  1  0.50000000  0.24901402  0.86943662  1
  H  H11  1  0.50000000  0.75098598  0.86943662  1
  H  H12  1  0.00000000  -0.00000000  0.08700756  1
  H  H13  1  0.00000000  0.00000000  0.91299244  1
  H  H14  1  0.50000000  0.24978846  0.04345618  1
  H  H15  1  0.50000000  0.75021154  0.04345618  1
  H  H16  1  0.50000000  0.24978846  0.95654382  1
  H  H17  1  0.50000000  0.75021154  0.95654382  1
  H  H18  1  0.00000000  0.50000000  0.00000000  1
  He  He19  1  0.00000000  0.00000000  0.17079699  1
  He  He20  1  0.00000000  0.00000000  0.82920301  1
  He  He21  1  0.00000000  0.50000000  0.08771513  1
  He  He22  1  0.00000000  0.50000000  0.91228487  1
  He  He23  1  0.00000000  0.00000000  0.00000000  1
  Li  Li24  1  0.50000000  0.00000000  0.25426445  1
  Li  Li25  1  0.50000000  0.00000000  0.74573555  1
  Li  Li26  1  0.50000000  0.50000000  0.17482430  1
  Li  Li27  1  0.50000000  0.50000000  0.82517570  1
  Li  Li28  1  0.50000000  0.00000000  0.08669145  1
  Li  Li29  1  0.50000000  0.00000000  0.91330855  1
  Li  Li30  1  0.50000000  0.50000000  0.00000000  1
