# generated using pymatgen
data_HHe6Li
_symmetry_space_group_name_H-M   'P 1'
_cell_length_a   5.64146393
_cell_length_b   5.64146393
_cell_length_c   5.64146393
_cell_angle_alpha   56.83514791
_cell_angle_beta   56.83514791
_cell_angle_gamma   56.83514791
_symmetry_Int_Tables_number   1
_chemical_formula_structural   HHe6Li
_chemical_formula_sum   'H1 He6 Li1'
_cell_volume   117.68593480
_cell_formula_units_Z   1
loop_
 _symmetry_equiv_pos_site_id
 _symmetry_equiv_pos_as_xyz
  1  'x, y, z'
loop_
 _atom_site_type_symbol
 _atom_site_label
 _atom_site_symmetry_multiplicity
 _atom_site_fract_x
 _atom_site_fract_y
 _atom_site_fract_z
 _atom_site_occupancy
  H  H0  1  -0.00000000  0.00000000  0.00000000  1
  He  He1  1  0.87250922  0.24653653  0.63177040  1
  He  He2  1  0.24653653  0.63177040  0.87250922  1
  He  He3  1  0.63177040  0.87250922  0.24653653  1
  He  He4  1  0.12749078  0.75346347  0.36822960  1
  He  He5  1  0.75346347  0.36822960  0.12749078  1
  He  He6  1  0.36822960  0.12749078  0.75346347  1
  Li  Li7  1  0.50000000  0.50000000  0.50000000  1
