# generated using pymatgen
data_HHeLi
_symmetry_space_group_name_H-M   'P 1'
_cell_length_a   3.81189382
_cell_length_b   6.73992901
_cell_length_c   7.91024155
_cell_angle_alpha   90.00000000
_cell_angle_beta   90.00000000
_cell_angle_gamma   90.00000000
_symmetry_Int_Tables_number   1
_chemical_formula_structural   HHeLi
_chemical_formula_sum   'H4 He4 Li4'
_cell_volume   203.22908526
_cell_formula_units_Z   4
loop_
 _symmetry_equiv_pos_site_id
 _symmetry_equiv_pos_as_xyz
  1  'x, y, z'
loop_
 _atom_site_type_symbol
 _atom_site_label
 _atom_site_symmetry_multiplicity
 _atom_site_fract_x
 _atom_site_fract_y
 _atom_site_fract_z
 _atom_site_occupancy
  H  H0  1  0.25000000  0.96210027  0.33083132  1
  H  H1  1  0.75000000  0.53789973  0.83083132  1
  H  H2  1  0.75000000  0.03789973  0.66916868  1
  H  H3  1  0.25000000  0.46210027  0.16916868  1
  He  He4  1  0.25000000  0.36545422  0.55972246  1
  He  He5  1  0.75000000  0.13454578  0.05972246  1
  He  He6  1  0.75000000  0.63454578  0.44027754  1
  He  He7  1  0.25000000  0.86545422  0.94027754  1
  Li  Li8  1  0.25000000  0.74476965  0.63423697  1
  Li  Li9  1  0.75000000  0.75523035  0.13423697  1
  Li  Li10  1  0.75000000  0.25523035  0.36576303  1
  Li  Li11  1  0.25000000  0.24476965  0.86576303  1
