# generated using pymatgen
data_H4HeLi
_symmetry_space_group_name_H-M   'P 1'
_cell_length_a   5.36287313
_cell_length_b   5.13618054
_cell_length_c   5.35148607
_cell_angle_alpha   88.15761316
_cell_angle_beta   90.00000000
_cell_angle_gamma   90.00000000
_symmetry_Int_Tables_number   1
_chemical_formula_structural   H4HeLi
_chemical_formula_sum   'H8 He2 Li2'
_cell_volume   147.32879481
_cell_formula_units_Z   2
loop_
 _symmetry_equiv_pos_site_id
 _symmetry_equiv_pos_as_xyz
  1  'x, y, z'
loop_
 _atom_site_type_symbol
 _atom_site_label
 _atom_site_symmetry_multiplicity
 _atom_site_fract_x
 _atom_site_fract_y
 _atom_site_fract_z
 _atom_site_occupancy
  H  H0  1  0.06196766  0.73821445  0.05425725  1
  H  H1  1  0.06196766  0.26178555  0.44574275  1
  H  H2  1  0.93803234  0.26178555  0.94574275  1
  H  H3  1  0.93803234  0.73821445  0.55425725  1
  H  H4  1  0.43401929  0.73494918  0.42599557  1
  H  H5  1  0.43401929  0.26505082  0.07400443  1
  H  H6  1  0.56598071  0.26505082  0.57400443  1
  H  H7  1  0.56598071  0.73494918  0.92599557  1
  He  He8  1  0.23481802  0.00000000  0.25000000  1
  He  He9  1  0.76518198  0.00000000  0.75000000  1
  Li  Li10  1  0.74860025  0.50000000  0.25000000  1
  Li  Li11  1  0.25139975  0.50000000  0.75000000  1
