# generated using pymatgen
data_HHeLi
_symmetry_space_group_name_H-M   'P 1'
_cell_length_a   10.06199091
_cell_length_b   10.06199091
_cell_length_c   10.06199091
_cell_angle_alpha   21.91450916
_cell_angle_beta   21.91450916
_cell_angle_gamma   21.91450916
_symmetry_Int_Tables_number   1
_chemical_formula_structural   HHeLi
_chemical_formula_sum   'H2 He2 Li2'
_cell_volume   124.38811955
_cell_formula_units_Z   2
loop_
 _symmetry_equiv_pos_site_id
 _symmetry_equiv_pos_as_xyz
  1  'x, y, z'
loop_
 _atom_site_type_symbol
 _atom_site_label
 _atom_site_symmetry_multiplicity
 _atom_site_fract_x
 _atom_site_fract_y
 _atom_site_fract_z
 _atom_site_occupancy
  H  H0  1  0.10775222  0.10775222  0.10775222  1
  H  H1  1  0.89224778  0.89224778  0.89224778  1
  He  He2  1  0.36236459  0.36236459  0.36236459  1
  He  He3  1  0.63763541  0.63763541  0.63763541  1
  Li  Li4  1  0.28460387  0.28460387  0.28460387  1
  Li  Li5  1  0.71539613  0.71539613  0.71539613  1
