# generated using pymatgen
data_HHe(LiBe)2
_symmetry_space_group_name_H-M   'P 1'
_cell_length_a   3.56683271
_cell_length_b   6.30319863
_cell_length_c   6.62834458
_cell_angle_alpha   75.68709049
_cell_angle_beta   90.00000000
_cell_angle_gamma   90.00000000
_symmetry_Int_Tables_number   1
_chemical_formula_structural   HHe(LiBe)2
_chemical_formula_sum   'H2 He2 Li4 Be4'
_cell_volume   144.39584089
_cell_formula_units_Z   2
loop_
 _symmetry_equiv_pos_site_id
 _symmetry_equiv_pos_as_xyz
  1  'x, y, z'
loop_
 _atom_site_type_symbol
 _atom_site_label
 _atom_site_symmetry_multiplicity
 _atom_site_fract_x
 _atom_site_fract_y
 _atom_site_fract_z
 _atom_site_occupancy
  H  H0  1  0.75000000  0.77303542  0.42100765  1
  H  H1  1  0.25000000  0.22696458  0.57899235  1
  He  He2  1  0.25000000  0.72271170  0.10383640  1
  He  He3  1  0.75000000  0.27728830  0.89616360  1
  Li  Li4  1  0.75000000  0.87632003  0.76404046  1
  Li  Li5  1  0.25000000  0.12367997  0.23595954  1
  Li  Li6  1  0.75000000  0.37796315  0.30465722  1
  Li  Li7  1  0.25000000  0.62203685  0.69534278  1
  Be  Be8  1  0.75000000  0.89531256  0.90632098  1
  Be  Be9  1  0.25000000  0.10468744  0.09367902  1
  Be  Be10  1  0.75000000  0.46074859  0.15865872  1
  Be  Be11  1  0.25000000  0.53925141  0.84134128  1
