# generated using pymatgen
data_HHeLi3
_symmetry_space_group_name_H-M   'P 1'
_cell_length_a   5.41478327
_cell_length_b   5.41563946
_cell_length_c   5.41563946
_cell_angle_alpha   60.00000000
_cell_angle_beta   59.99476927
_cell_angle_gamma   59.99476927
_symmetry_Int_Tables_number   1
_chemical_formula_structural   HHeLi3
_chemical_formula_sum   'H2 He2 Li6'
_cell_volume   112.28745196
_cell_formula_units_Z   2
loop_
 _symmetry_equiv_pos_site_id
 _symmetry_equiv_pos_as_xyz
  1  'x, y, z'
loop_
 _atom_site_type_symbol
 _atom_site_label
 _atom_site_symmetry_multiplicity
 _atom_site_fract_x
 _atom_site_fract_y
 _atom_site_fract_z
 _atom_site_occupancy
  H  H0  1  -0.00000000  -0.00000000  -0.00000000  1
  H  H1  1  0.50000000  0.50000000  0.50000000  1
  He  He2  1  0.25000000  0.25000000  0.25000000  1
  He  He3  1  0.75000000  0.75000000  0.75000000  1
  Li  Li4  1  0.25000000  0.25000000  0.74276175  1
  Li  Li5  1  0.25000000  0.74276175  0.75723825  1
  Li  Li6  1  0.25000000  0.75723825  0.25000000  1
  Li  Li7  1  0.75000000  0.75000000  0.25723825  1
  Li  Li8  1  0.75000000  0.25723825  0.24276175  1
  Li  Li9  1  0.75000000  0.24276175  0.75000000  1
