# generated using pymatgen
data_H3He
_symmetry_space_group_name_H-M   'P 1'
_cell_length_a   5.55548310
_cell_length_b   5.55548275
_cell_length_c   9.08717467
_cell_angle_alpha   90.00000000
_cell_angle_beta   90.00000000
_cell_angle_gamma   120.00000209
_symmetry_Int_Tables_number   1
_chemical_formula_structural   H3He
_chemical_formula_sum   'H12 He4'
_cell_volume   242.88636346
_cell_formula_units_Z   4
loop_
 _symmetry_equiv_pos_site_id
 _symmetry_equiv_pos_as_xyz
  1  'x, y, z'
loop_
 _atom_site_type_symbol
 _atom_site_label
 _atom_site_symmetry_multiplicity
 _atom_site_fract_x
 _atom_site_fract_y
 _atom_site_fract_z
 _atom_site_occupancy
  H  H0  1  -0.00000000  0.50000000  -0.00000000  1
  H  H1  1  0.50000000  0.50000000  -0.00000000  1
  H  H2  1  0.50000000  0.00000000  0.00000000  1
  H  H3  1  0.00000000  0.50000000  0.50000000  1
  H  H4  1  0.50000000  0.50000000  0.50000000  1
  H  H5  1  0.50000000  -0.00000000  0.50000000  1
  H  H6  1  0.16619679  0.33239357  0.25000000  1
  H  H7  1  0.66752186  0.83372595  0.25000000  1
  H  H8  1  0.16620409  0.83372595  0.25000000  1
  H  H9  1  0.83380321  0.66760643  0.75000000  1
  H  H10  1  0.33247814  0.16627405  0.75000000  1
  H  H11  1  0.83379591  0.16627405  0.75000000  1
  He  He12  1  -0.00000000  0.00000000  0.00000000  1
  He  He13  1  0.00000000  0.00000000  0.50000000  1
  He  He14  1  0.66664977  0.33329953  0.25000000  1
  He  He15  1  0.33335023  0.66670047  0.75000000  1
