# generated using pymatgen
data_H4HeLi
_symmetry_space_group_name_H-M   'P 1'
_cell_length_a   8.14011771
_cell_length_b   10.72945273
_cell_length_c   10.79669888
_cell_angle_alpha   90.00000000
_cell_angle_beta   90.00000000
_cell_angle_gamma   90.00000000
_symmetry_Int_Tables_number   1
_chemical_formula_structural   H4HeLi
_chemical_formula_sum   'H16 He4 Li4'
_cell_volume   942.97297247
_cell_formula_units_Z   4
loop_
 _symmetry_equiv_pos_site_id
 _symmetry_equiv_pos_as_xyz
  1  'x, y, z'
loop_
 _atom_site_type_symbol
 _atom_site_label
 _atom_site_symmetry_multiplicity
 _atom_site_fract_x
 _atom_site_fract_y
 _atom_site_fract_z
 _atom_site_occupancy
  H  H0  1  0.35188041  0.19107916  0.04640128  1
  H  H1  1  0.14811959  0.80892084  0.04640128  1
  H  H2  1  0.14811959  0.69107916  0.45359872  1
  H  H3  1  0.35188041  0.30892084  0.45359872  1
  H  H4  1  0.64811959  0.80892084  0.95359872  1
  H  H5  1  0.85188041  0.19107916  0.95359872  1
  H  H6  1  0.85188041  0.30892084  0.54640128  1
  H  H7  1  0.64811959  0.69107916  0.54640128  1
  H  H8  1  0.99278558  0.04220269  0.32034489  1
  H  H9  1  0.50721442  0.95779731  0.32034489  1
  H  H10  1  0.50721442  0.54220269  0.17965511  1
  H  H11  1  0.99278558  0.45779731  0.17965511  1
  H  H12  1  0.00721442  0.95779731  0.67965511  1
  H  H13  1  0.49278558  0.04220269  0.67965511  1
  H  H14  1  0.49278558  0.45779731  0.82034489  1
  H  H15  1  0.00721442  0.54220269  0.82034489  1
  He  He16  1  0.67976453  0.25000000  0.25000000  1
  He  He17  1  0.82023547  0.75000000  0.25000000  1
  He  He18  1  0.32023547  0.75000000  0.75000000  1
  He  He19  1  0.17976453  0.25000000  0.75000000  1
  Li  Li20  1  0.25000000  -0.00000000  0.17771338  1
  Li  Li21  1  0.25000000  0.50000000  0.32228662  1
  Li  Li22  1  0.75000000  0.00000000  0.82228662  1
  Li  Li23  1  0.75000000  0.50000000  0.67771338  1
