# generated using pymatgen
data_H3He2
_symmetry_space_group_name_H-M   'P 1'
_cell_length_a   9.60095179
_cell_length_b   9.41149233
_cell_length_c   7.25543787
_cell_angle_alpha   68.95625024
_cell_angle_beta   66.18999669
_cell_angle_gamma   44.85375307
_symmetry_Int_Tables_number   1
_chemical_formula_structural   H3He2
_chemical_formula_sum   'H6 He4'
_cell_volume   420.32950594
_cell_formula_units_Z   2
loop_
 _symmetry_equiv_pos_site_id
 _symmetry_equiv_pos_as_xyz
  1  'x, y, z'
loop_
 _atom_site_type_symbol
 _atom_site_label
 _atom_site_symmetry_multiplicity
 _atom_site_fract_x
 _atom_site_fract_y
 _atom_site_fract_z
 _atom_site_occupancy
  H  H0  1  0.84755441  0.84755441  0.15244559  1
  H  H1  1  0.15244559  0.15244559  0.84755441  1
  H  H2  1  0.71328530  0.13508278  0.28671470  1
  H  H3  1  0.86491722  0.28671470  0.13508278  1
  H  H4  1  0.13508278  0.71328530  0.86491722  1
  H  H5  1  0.28671470  0.86491722  0.71328530  1
  He  He6  1  0.27110035  0.72889965  0.27110035  1
  He  He7  1  0.72889965  0.27110035  0.72889965  1
  He  He8  1  0.25000000  0.25000000  0.25000000  1
  He  He9  1  0.75000000  0.75000000  0.75000000  1
