# generated using pymatgen
data_H7He2Li2
_symmetry_space_group_name_H-M   'P 1'
_cell_length_a   10.70919940
_cell_length_b   10.70919940
_cell_length_c   5.28675838
_cell_angle_alpha   90.00000000
_cell_angle_beta   90.00000000
_cell_angle_gamma   90.00000000
_symmetry_Int_Tables_number   1
_chemical_formula_structural   H7He2Li2
_chemical_formula_sum   'H28 He8 Li8'
_cell_volume   606.32220279
_cell_formula_units_Z   4
loop_
 _symmetry_equiv_pos_site_id
 _symmetry_equiv_pos_as_xyz
  1  'x, y, z'
loop_
 _atom_site_type_symbol
 _atom_site_label
 _atom_site_symmetry_multiplicity
 _atom_site_fract_x
 _atom_site_fract_y
 _atom_site_fract_z
 _atom_site_occupancy
  H  H0  1  0.75000000  0.25000000  0.75000000  1
  H  H1  1  0.25000000  0.75000000  0.25000000  1
  H  H2  1  0.25000000  0.75000000  0.75000000  1
  H  H3  1  0.75000000  0.25000000  0.25000000  1
  H  H4  1  0.06382363  0.06382363  0.80875395  1
  H  H5  1  0.43617637  0.43617637  0.80875395  1
  H  H6  1  0.43617637  0.06382363  0.30875395  1
  H  H7  1  0.06382363  0.43617637  0.30875395  1
  H  H8  1  0.93617637  0.56382363  0.69124605  1
  H  H9  1  0.56382363  0.93617637  0.69124605  1
  H  H10  1  0.56382363  0.56382363  0.19124605  1
  H  H11  1  0.93617637  0.93617637  0.19124605  1
  H  H12  1  0.00302387  0.68027660  0.12849889  1
  H  H13  1  0.49697613  0.81972340  0.12849889  1
  H  H14  1  0.81972340  0.00302387  0.62849889  1
  H  H15  1  0.68027660  0.49697613  0.62849889  1
  H  H16  1  0.99697613  0.18027660  0.37150111  1
  H  H17  1  0.50302387  0.31972340  0.37150111  1
  H  H18  1  0.18027660  0.50302387  0.87150111  1
  H  H19  1  0.31972340  0.99697613  0.87150111  1
  H  H20  1  0.99697613  0.31972340  0.87150111  1
  H  H21  1  0.50302387  0.18027660  0.87150111  1
  H  H22  1  0.18027660  0.99697613  0.37150111  1
  H  H23  1  0.31972340  0.50302387  0.37150111  1
  H  H24  1  0.00302387  0.81972340  0.62849889  1
  H  H25  1  0.49697613  0.68027660  0.62849889  1
  H  H26  1  0.81972340  0.49697613  0.12849889  1
  H  H27  1  0.68027660  0.00302387  0.12849889  1
  He  He28  1  0.12744065  0.12744065  0.53539610  1
  He  He29  1  0.37255935  0.37255935  0.53539610  1
  He  He30  1  0.37255935  0.12744065  0.03539610  1
  He  He31  1  0.12744065  0.37255935  0.03539610  1
  He  He32  1  0.87255935  0.62744065  0.96460390  1
  He  He33  1  0.62744065  0.87255935  0.96460390  1
  He  He34  1  0.62744065  0.62744065  0.46460390  1
  He  He35  1  0.87255935  0.87255935  0.46460390  1
  Li  Li36  1  0.12824602  0.87175398  -0.00000000  1
  Li  Li37  1  0.37175398  0.62824602  -0.00000000  1
  Li  Li38  1  0.62824602  0.12824602  0.50000000  1
  Li  Li39  1  0.87175398  0.37175398  0.50000000  1
  Li  Li40  1  0.87175398  0.12824602  -0.00000000  1
  Li  Li41  1  0.62824602  0.37175398  0.00000000  1
  Li  Li42  1  0.37175398  0.87175398  0.50000000  1
  Li  Li43  1  0.12824602  0.62824602  0.50000000  1
