# generated using pymatgen
data_H2He2Li
_symmetry_space_group_name_H-M   'P 1'
_cell_length_a   6.10823782
_cell_length_b   6.10823782
_cell_length_c   4.93822972
_cell_angle_alpha   72.96585493
_cell_angle_beta   72.96585493
_cell_angle_gamma   41.90116355
_symmetry_Int_Tables_number   1
_chemical_formula_structural   H2He2Li
_chemical_formula_sum   'H2 He2 Li1'
_cell_volume   116.83926911
_cell_formula_units_Z   1
loop_
 _symmetry_equiv_pos_site_id
 _symmetry_equiv_pos_as_xyz
  1  'x, y, z'
loop_
 _atom_site_type_symbol
 _atom_site_label
 _atom_site_symmetry_multiplicity
 _atom_site_fract_x
 _atom_site_fract_y
 _atom_site_fract_z
 _atom_site_occupancy
  H  H0  1  0.26056185  0.26056185  0.13683830  1
  H  H1  1  0.73943815  0.73943815  0.86316170  1
  He  He2  1  0.64412117  0.64412117  0.43039160  1
  He  He3  1  0.35587883  0.35587883  0.56960840  1
  Li  Li4  1  -0.00000000  -0.00000000  -0.00000000  1
