# generated using pymatgen
data_HHeLi2
_symmetry_space_group_name_H-M   'P 1'
_cell_length_a   6.11043250
_cell_length_b   3.81538182
_cell_length_c   9.53427780
_cell_angle_alpha   83.62008723
_cell_angle_beta   90.00000000
_cell_angle_gamma   90.00000000
_symmetry_Int_Tables_number   1
_chemical_formula_structural   HHeLi2
_chemical_formula_sum   'H4 He4 Li8'
_cell_volume   220.90206878
_cell_formula_units_Z   4
loop_
 _symmetry_equiv_pos_site_id
 _symmetry_equiv_pos_as_xyz
  1  'x, y, z'
loop_
 _atom_site_type_symbol
 _atom_site_label
 _atom_site_symmetry_multiplicity
 _atom_site_fract_x
 _atom_site_fract_y
 _atom_site_fract_z
 _atom_site_occupancy
  H  H0  1  0.49774107  0.02448794  0.83769987  1
  H  H1  1  0.99774107  0.47551206  0.66230013  1
  H  H2  1  0.50225893  0.97551206  0.16230013  1
  H  H3  1  0.00225893  0.52448794  0.33769987  1
  He  He4  1  0.38505523  0.09331667  0.49718902  1
  He  He5  1  0.88505523  0.40668333  0.00281098  1
  He  He6  1  0.61494477  0.90668333  0.50281098  1
  He  He7  1  0.11494477  0.59331667  0.99718902  1
  Li  Li8  1  0.71947430  0.89154759  0.61821064  1
  Li  Li9  1  0.21947430  0.60845241  0.88178936  1
  Li  Li10  1  0.28052570  0.10845241  0.38178936  1
  Li  Li11  1  0.78052570  0.39154759  0.11821064  1
  Li  Li12  1  0.32276960  0.21532499  0.60879278  1
  Li  Li13  1  0.82276960  0.28467501  0.89120722  1
  Li  Li14  1  0.67723040  0.78467501  0.39120722  1
  Li  Li15  1  0.17723040  0.71532499  0.10879278  1
