# generated using pymatgen
data_H4HeLi4
_symmetry_space_group_name_H-M   'P 1'
_cell_length_a   7.68085006
_cell_length_b   7.68085006
_cell_length_c   3.99992851
_cell_angle_alpha   90.00000000
_cell_angle_beta   90.00000000
_cell_angle_gamma   90.00000000
_symmetry_Int_Tables_number   1
_chemical_formula_structural   H4HeLi4
_chemical_formula_sum   'H8 He2 Li8'
_cell_volume   235.97761302
_cell_formula_units_Z   2
loop_
 _symmetry_equiv_pos_site_id
 _symmetry_equiv_pos_as_xyz
  1  'x, y, z'
loop_
 _atom_site_type_symbol
 _atom_site_label
 _atom_site_symmetry_multiplicity
 _atom_site_fract_x
 _atom_site_fract_y
 _atom_site_fract_z
 _atom_site_occupancy
  H  H0  1  0.03234208  0.58504595  0.14155963  1
  H  H1  1  0.46765792  0.91495405  0.14155963  1
  H  H2  1  0.41495405  0.53234208  0.64155963  1
  H  H3  1  0.08504595  0.96765792  0.64155963  1
  H  H4  1  0.96765792  0.41495405  0.85844037  1
  H  H5  1  0.53234208  0.08504595  0.85844037  1
  H  H6  1  0.58504595  0.46765792  0.35844037  1
  H  H7  1  0.91495405  0.03234208  0.35844037  1
  He  He8  1  0.25000000  0.25000000  0.25000000  1
  He  He9  1  0.75000000  0.75000000  0.75000000  1
  Li  Li10  1  0.64476279  0.10407976  0.35891678  1
  Li  Li11  1  0.85523721  0.39592024  0.35891678  1
  Li  Li12  1  0.89592024  0.14476279  0.85891678  1
  Li  Li13  1  0.60407976  0.35523721  0.85891678  1
  Li  Li14  1  0.35523721  0.89592024  0.64108322  1
  Li  Li15  1  0.14476279  0.60407976  0.64108322  1
  Li  Li16  1  0.10407976  0.85523721  0.14108322  1
  Li  Li17  1  0.39592024  0.64476279  0.14108322  1
