# generated using pymatgen
data_HHe2
_symmetry_space_group_name_H-M   'P 1'
_cell_length_a   3.56619631
_cell_length_b   3.56591197
_cell_length_c   14.62809902
_cell_angle_alpha   90.00000000
_cell_angle_beta   90.00000000
_cell_angle_gamma   120.00263778
_symmetry_Int_Tables_number   1
_chemical_formula_structural   HHe2
_chemical_formula_sum   'H2 He4'
_cell_volume   161.09529009
_cell_formula_units_Z   2
loop_
 _symmetry_equiv_pos_site_id
 _symmetry_equiv_pos_as_xyz
  1  'x, y, z'
loop_
 _atom_site_type_symbol
 _atom_site_label
 _atom_site_symmetry_multiplicity
 _atom_site_fract_x
 _atom_site_fract_y
 _atom_site_fract_z
 _atom_site_occupancy
  H  H0  1  0.66664494  0.33328988  0.25000000  1
  H  H1  1  0.33335506  0.66671012  0.75000000  1
  He  He2  1  0.66666652  0.33333304  0.62560526  1
  He  He3  1  0.33333348  0.66666696  0.12560526  1
  He  He4  1  0.33333348  0.66666696  0.37439474  1
  He  He5  1  0.66666652  0.33333304  0.87439474  1
