# generated using pymatgen
data_H3He2Li
_symmetry_space_group_name_H-M   'P 1'
_cell_length_a   7.53119242
_cell_length_b   7.53119242
_cell_length_c   7.53119242
_cell_angle_alpha   60.00000000
_cell_angle_beta   60.00000000
_cell_angle_gamma   60.00000000
_symmetry_Int_Tables_number   1
_chemical_formula_structural   H3He2Li
_chemical_formula_sum   'H12 He8 Li4'
_cell_volume   302.04818736
_cell_formula_units_Z   4
loop_
 _symmetry_equiv_pos_site_id
 _symmetry_equiv_pos_as_xyz
  1  'x, y, z'
loop_
 _atom_site_type_symbol
 _atom_site_label
 _atom_site_symmetry_multiplicity
 _atom_site_fract_x
 _atom_site_fract_y
 _atom_site_fract_z
 _atom_site_occupancy
  H  H0  1  0.19193053  0.80806947  0.80806947  1
  H  H1  1  0.80806947  0.19193053  0.19193053  1
  H  H2  1  0.19193053  0.80806947  0.19193053  1
  H  H3  1  0.80806947  0.19193053  0.80806947  1
  H  H4  1  0.80806947  0.80806947  0.19193053  1
  H  H5  1  0.19193053  0.19193053  0.80806947  1
  H  H6  1  0.44193053  0.05806947  0.44193053  1
  H  H7  1  0.05806947  0.44193053  0.05806947  1
  H  H8  1  0.44193053  0.05806947  0.05806947  1
  H  H9  1  0.05806947  0.44193053  0.44193053  1
  H  H10  1  0.44193053  0.44193053  0.05806947  1
  H  H11  1  0.05806947  0.05806947  0.44193053  1
  He  He12  1  0.83435789  0.49692632  0.83435789  1
  He  He13  1  0.49692632  0.83435789  0.83435789  1
  He  He14  1  0.83435789  0.83435789  0.83435789  1
  He  He15  1  0.83435789  0.83435789  0.49692632  1
  He  He16  1  0.75307368  0.41564211  0.41564211  1
  He  He17  1  0.41564211  0.75307368  0.41564211  1
  He  He18  1  0.41564211  0.41564211  0.41564211  1
  He  He19  1  0.41564211  0.41564211  0.75307368  1
  Li  Li20  1  0.62500000  0.12500000  0.62500000  1
  Li  Li21  1  0.12500000  0.62500000  0.62500000  1
  Li  Li22  1  0.62500000  0.62500000  0.62500000  1
  Li  Li23  1  0.62500000  0.62500000  0.12500000  1
