# generated using pymatgen
data_H2HeLiBe2
_symmetry_space_group_name_H-M   'P 1'
_cell_length_a   9.93790702
_cell_length_b   9.93790702
_cell_length_c   9.93790702
_cell_angle_alpha   25.11081764
_cell_angle_beta   25.11081764
_cell_angle_gamma   25.11081764
_symmetry_Int_Tables_number   1
_chemical_formula_structural   H2HeLiBe2
_chemical_formula_sum   'H2 He1 Li1 Be2'
_cell_volume   155.52393460
_cell_formula_units_Z   1
loop_
 _symmetry_equiv_pos_site_id
 _symmetry_equiv_pos_as_xyz
  1  'x, y, z'
loop_
 _atom_site_type_symbol
 _atom_site_label
 _atom_site_symmetry_multiplicity
 _atom_site_fract_x
 _atom_site_fract_y
 _atom_site_fract_z
 _atom_site_occupancy
  H  H0  1  0.74526456  0.74526456  0.74526456  1
  H  H1  1  0.25473544  0.25473544  0.25473544  1
  He  He2  1  -0.00000000  0.00000000  0.00000000  1
  Li  Li3  1  0.50000000  0.50000000  0.50000000  1
  Be  Be4  1  0.56287914  0.56287914  0.56287914  1
  Be  Be5  1  0.43712086  0.43712086  0.43712086  1
