# generated using pymatgen
data_H10He3Li19
_symmetry_space_group_name_H-M   'P 1'
_cell_length_a   7.86947307
_cell_length_b   7.86947307
_cell_length_c   5.74150823
_cell_angle_alpha   88.84112859
_cell_angle_beta   88.84112859
_cell_angle_gamma   67.22392661
_symmetry_Int_Tables_number   1
_chemical_formula_structural   H10He3Li19
_chemical_formula_sum   'H10 He3 Li19'
_cell_volume   327.74180702
_cell_formula_units_Z   1
loop_
 _symmetry_equiv_pos_site_id
 _symmetry_equiv_pos_as_xyz
  1  'x, y, z'
loop_
 _atom_site_type_symbol
 _atom_site_label
 _atom_site_symmetry_multiplicity
 _atom_site_fract_x
 _atom_site_fract_y
 _atom_site_fract_z
 _atom_site_occupancy
  H  H0  1  0.61440331  0.38559669  0.00000000  1
  H  H1  1  0.38559669  0.61440331  0.00000000  1
  H  H2  1  0.85745080  0.65259249  0.97936913  1
  H  H3  1  0.34740751  0.14254920  0.02063087  1
  H  H4  1  0.14254920  0.34740751  0.02063087  1
  H  H5  1  0.65259249  0.85745080  0.97936913  1
  H  H6  1  0.30222853  0.93671068  0.56836196  1
  H  H7  1  0.06328932  0.69777147  0.43163804  1
  H  H8  1  0.69777147  0.06328932  0.43163804  1
  H  H9  1  0.93671068  0.30222853  0.56836196  1
  He  He10  1  -0.00000000  -0.00000000  0.00000000  1
  He  He11  1  0.62737388  0.62737388  0.61269167  1
  He  He12  1  0.37262612  0.37262612  0.38730833  1
  Li  Li13  1  0.00000000  0.00000000  0.50000000  1
  Li  Li14  1  0.62203269  0.62203269  0.12438575  1
  Li  Li15  1  0.37796731  0.37796731  0.87561425  1
  Li  Li16  1  0.16408930  0.16408930  0.29727291  1
  Li  Li17  1  0.83591070  0.83591070  0.70272709  1
  Li  Li18  1  0.18026708  0.18026708  0.72712514  1
  Li  Li19  1  0.81973292  0.81973292  0.27287486  1
  Li  Li20  1  0.95384416  0.48167767  0.30043645  1
  Li  Li21  1  0.51832233  0.04615584  0.69956355  1
  Li  Li22  1  0.04615584  0.51832233  0.69956355  1
  Li  Li23  1  0.48167767  0.95384416  0.30043645  1
  Li  Li24  1  0.62125663  0.12309558  0.07468983  1
  Li  Li25  1  0.87690442  0.37874337  0.92531017  1
  Li  Li26  1  0.37874337  0.87690442  0.92531017  1
  Li  Li27  1  0.12309558  0.62125663  0.07468983  1
  Li  Li28  1  0.29061894  0.76879866  0.30133973  1
  Li  Li29  1  0.23120134  0.70938106  0.69866027  1
  Li  Li30  1  0.70938106  0.23120134  0.69866027  1
  Li  Li31  1  0.76879866  0.29061894  0.30133973  1
