# generated using pymatgen
data_H2He
_symmetry_space_group_name_H-M   'P 1'
_cell_length_a   4.97625179
_cell_length_b   4.97631375
_cell_length_c   5.47049508
_cell_angle_alpha   89.99988142
_cell_angle_beta   89.99992016
_cell_angle_gamma   120.00020776
_symmetry_Int_Tables_number   1
_chemical_formula_structural   H2He
_chemical_formula_sum   'H6 He3'
_cell_volume   117.31848734
_cell_formula_units_Z   3
loop_
 _symmetry_equiv_pos_site_id
 _symmetry_equiv_pos_as_xyz
  1  'x, y, z'
loop_
 _atom_site_type_symbol
 _atom_site_label
 _atom_site_symmetry_multiplicity
 _atom_site_fract_x
 _atom_site_fract_y
 _atom_site_fract_z
 _atom_site_occupancy
  H  H0  1  0.41382224  0.26677345  0.78608741  1
  H  H1  1  0.73322426  0.14704827  0.45276011  1
  H  H2  1  0.85294833  0.58617426  0.11942270  1
  H  H3  1  0.26677314  0.41382311  0.21391914  1
  H  H4  1  0.14704933  0.73322969  0.54725813  1
  H  H5  1  0.58618090  0.85295309  0.88058767  1
  He  He6  1  0.47037613  0.00000054  0.66667623  1
  He  He7  1  0.99999944  0.47037378  0.33334254  1
  He  He8  1  0.52962623  0.52962382  0.00001274  1
