# generated using pymatgen
data_HHe
_symmetry_space_group_name_H-M   'P 1'
_cell_length_a   4.34412666
_cell_length_b   4.37016823
_cell_length_c   12.49938899
_cell_angle_alpha   90.00000000
_cell_angle_beta   90.00000000
_cell_angle_gamma   90.00000000
_symmetry_Int_Tables_number   1
_chemical_formula_structural   HHe
_chemical_formula_sum   'H4 He4'
_cell_volume   237.29545392
_cell_formula_units_Z   4
loop_
 _symmetry_equiv_pos_site_id
 _symmetry_equiv_pos_as_xyz
  1  'x, y, z'
loop_
 _atom_site_type_symbol
 _atom_site_label
 _atom_site_symmetry_multiplicity
 _atom_site_fract_x
 _atom_site_fract_y
 _atom_site_fract_z
 _atom_site_occupancy
  H  H0  1  0.75000000  0.92076721  0.14347633  1
  H  H1  1  0.25000000  0.42076721  0.35652367  1
  H  H2  1  0.25000000  0.07923279  0.85652367  1
  H  H3  1  0.75000000  0.57923279  0.64347633  1
  He  He4  1  0.75000000  0.54173210  0.86468464  1
  He  He5  1  0.25000000  0.04173210  0.63531536  1
  He  He6  1  0.25000000  0.45826790  0.13531536  1
  He  He7  1  0.75000000  0.95826790  0.36468464  1
