# generated using pymatgen
data_H3He
_symmetry_space_group_name_H-M   'P 1'
_cell_length_a   7.30042887
_cell_length_b   7.30036226
_cell_length_c   7.46815269
_cell_angle_alpha   90.00000000
_cell_angle_beta   90.00000000
_cell_angle_gamma   120.00030187
_symmetry_Int_Tables_number   1
_chemical_formula_structural   H3He
_chemical_formula_sum   'H18 He6'
_cell_volume   344.69523869
_cell_formula_units_Z   6
loop_
 _symmetry_equiv_pos_site_id
 _symmetry_equiv_pos_as_xyz
  1  'x, y, z'
loop_
 _atom_site_type_symbol
 _atom_site_label
 _atom_site_symmetry_multiplicity
 _atom_site_fract_x
 _atom_site_fract_y
 _atom_site_fract_z
 _atom_site_occupancy
  H  H0  1  0.99999942  -0.00000000  0.31051981  1
  H  H1  1  0.00000058  0.00000000  0.81051981  1
  H  H2  1  0.66666893  0.33333591  0.20246796  1
  H  H3  1  0.33333107  0.66666409  0.70246796  1
  H  H4  1  0.66666698  0.33333591  0.70246796  1
  H  H5  1  0.33333302  0.66666409  0.20246796  1
  H  H6  1  0.00000219  0.72039778  0.07271103  1
  H  H7  1  0.27960441  0.27960222  0.07271103  1
  H  H8  1  0.72039135  -0.00000000  0.07271546  1
  H  H9  1  0.99999781  0.27960222  0.57271103  1
  H  H10  1  0.72039559  0.72039778  0.57271103  1
  H  H11  1  0.27960865  0.00000000  0.57271546  1
  H  H12  1  0.00000584  0.62385767  0.41125747  1
  H  H13  1  0.37614817  0.37614233  0.41125747  1
  H  H14  1  0.62385226  0.00000000  0.41125632  1
  H  H15  1  0.99999416  0.37614233  0.91125747  1
  H  H16  1  0.62385183  0.62385767  0.91125747  1
  H  H17  1  0.37614774  0.00000000  0.91125632  1
  He  He18  1  0.99999764  0.32650101  0.24187800  1
  He  He19  1  0.67349663  0.67349899  0.24187800  1
  He  He20  1  0.32650130  0.00000000  0.24187949  1
  He  He21  1  0.00000236  0.67349899  0.74187800  1
  He  He22  1  0.32650337  0.32650101  0.74187800  1
  He  He23  1  0.67349870  0.00000000  0.74187949  1
