# generated using pymatgen
data_HHeLiBe3
_symmetry_space_group_name_H-M   'P 1'
_cell_length_a   11.21070460
_cell_length_b   11.21070460
_cell_length_c   11.21070460
_cell_angle_alpha   149.41921412
_cell_angle_beta   148.52249539
_cell_angle_gamma   44.45850098
_symmetry_Int_Tables_number   1
_chemical_formula_structural   HHeLiBe3
_chemical_formula_sum   'H4 He4 Li4 Be12'
_cell_volume   373.18087636
_cell_formula_units_Z   4
loop_
 _symmetry_equiv_pos_site_id
 _symmetry_equiv_pos_as_xyz
  1  'x, y, z'
loop_
 _atom_site_type_symbol
 _atom_site_label
 _atom_site_symmetry_multiplicity
 _atom_site_fract_x
 _atom_site_fract_y
 _atom_site_fract_z
 _atom_site_occupancy
  H  H0  1  0.13489204  0.25000000  0.38489204  1
  H  H1  1  0.36510796  0.75000000  0.11510796  1
  H  H2  1  0.86510796  0.75000000  0.61510796  1
  H  H3  1  0.63489204  0.25000000  0.88489204  1
  He  He4  1  0.37732324  0.12732324  0.25000000  1
  He  He5  1  0.12267676  0.37267676  0.75000000  1
  He  He6  1  0.62267676  0.87267676  0.75000000  1
  He  He7  1  0.87732324  0.62732324  0.25000000  1
  Li  Li8  1  0.06965849  0.81965849  0.25000000  1
  Li  Li9  1  0.43034151  0.68034151  0.75000000  1
  Li  Li10  1  0.93034151  0.18034151  0.75000000  1
  Li  Li11  1  0.56965849  0.31965849  0.25000000  1
  Be  Be12  1  0.43933394  0.18933394  0.25000000  1
  Be  Be13  1  0.06066606  0.31066606  0.75000000  1
  Be  Be14  1  0.56066606  0.81066606  0.75000000  1
  Be  Be15  1  0.93933394  0.68933394  0.25000000  1
  Be  Be16  1  0.21046401  0.23152311  0.24754850  1
  Be  Be17  1  0.01602538  0.26847689  0.47894090  1
  Be  Be18  1  0.28953599  0.53708449  0.02105910  1
  Be  Be19  1  0.48397462  0.96291551  0.25245150  1
  Be  Be20  1  0.78953599  0.76847689  0.75245150  1
  Be  Be21  1  0.98397462  0.73152311  0.52105910  1
  Be  Be22  1  0.71046401  0.46291551  0.97894090  1
  Be  Be23  1  0.51602538  0.03708449  0.74754850  1
