# generated using pymatgen
data_HHe2
_symmetry_space_group_name_H-M   'P 1'
_cell_length_a   7.00154738
_cell_length_b   7.00153112
_cell_length_c   13.59473293
_cell_angle_alpha   90.00000000
_cell_angle_beta   90.00000000
_cell_angle_gamma   120.00007683
_symmetry_Int_Tables_number   1
_chemical_formula_structural   HHe2
_chemical_formula_sum   'H8 He16'
_cell_volume   577.14911180
_cell_formula_units_Z   8
loop_
 _symmetry_equiv_pos_site_id
 _symmetry_equiv_pos_as_xyz
  1  'x, y, z'
loop_
 _atom_site_type_symbol
 _atom_site_label
 _atom_site_symmetry_multiplicity
 _atom_site_fract_x
 _atom_site_fract_y
 _atom_site_fract_z
 _atom_site_occupancy
  H  H0  1  0.00000245  0.49999430  0.25000000  1
  H  H1  1  0.49999185  0.49999430  0.25000000  1
  H  H2  1  0.49999417  -0.00001166  0.25000000  1
  H  H3  1  -0.00000245  0.50000570  0.75000000  1
  H  H4  1  0.50000815  0.50000570  0.75000000  1
  H  H5  1  0.50000583  0.00001166  0.75000000  1
  H  H6  1  0.99999581  0.99999162  0.25000000  1
  H  H7  1  0.00000419  0.00000838  0.75000000  1
  He  He8  1  0.33384950  0.16692118  0.12604327  1
  He  He9  1  0.83307168  0.16692118  0.12604327  1
  He  He10  1  0.83306663  0.66613327  0.12604341  1
  He  He11  1  0.66615050  0.83307882  0.62604327  1
  He  He12  1  0.16692832  0.83307882  0.62604327  1
  He  He13  1  0.16693337  0.33386673  0.62604341  1
  He  He14  1  0.16692832  0.83307882  0.87395673  1
  He  He15  1  0.66615050  0.83307882  0.87395673  1
  He  He16  1  0.16693337  0.33386673  0.87395659  1
  He  He17  1  0.83307168  0.16692118  0.37395673  1
  He  He18  1  0.33384950  0.16692118  0.37395673  1
  He  He19  1  0.83306663  0.66613327  0.37395659  1
  He  He20  1  0.33332660  0.66665320  0.12598735  1
  He  He21  1  0.66667340  0.33334680  0.62598735  1
  He  He22  1  0.66667340  0.33334680  0.87401265  1
  He  He23  1  0.33332660  0.66665320  0.37401265  1
