# generated using pymatgen
data_H11He18LiBe4
_symmetry_space_group_name_H-M   'P 1'
_cell_length_a   8.67582164
_cell_length_b   8.67582164
_cell_length_c   8.67582164
_cell_angle_alpha   105.26096203
_cell_angle_beta   105.26096203
_cell_angle_gamma   118.26618006
_symmetry_Int_Tables_number   1
_chemical_formula_structural   H11He18LiBe4
_chemical_formula_sum   'H11 He18 Li1 Be4'
_cell_volume   493.69430887
_cell_formula_units_Z   1
loop_
 _symmetry_equiv_pos_site_id
 _symmetry_equiv_pos_as_xyz
  1  'x, y, z'
loop_
 _atom_site_type_symbol
 _atom_site_label
 _atom_site_symmetry_multiplicity
 _atom_site_fract_x
 _atom_site_fract_y
 _atom_site_fract_z
 _atom_site_occupancy
  H  H0  1  0.80792021  0.56562963  0.75770942  1
  H  H1  1  0.80792021  0.05021078  0.24229058  1
  H  H2  1  0.94978922  0.19207979  0.75770942  1
  H  H3  1  0.43437037  0.19207979  0.24229058  1
  H  H4  1  0.20465866  0.95103657  0.74637791  1
  H  H5  1  0.20465866  0.45828076  0.25362209  1
  H  H6  1  0.54171924  0.79534134  0.74637791  1
  H  H7  1  0.04896343  0.79534134  0.25362209  1
  H  H8  1  0.99683228  0.49683228  0.50000000  1
  H  H9  1  0.50316772  0.00316772  0.50000000  1
  H  H10  1  0.50000000  0.50000000  -0.00000000  1
  He  He11  1  0.79315412  0.50389337  0.99869313  1
  He  He12  1  0.50520024  0.79446099  0.00130687  1
  He  He13  1  0.20553901  0.20684588  0.71073924  1
  He  He14  1  0.49610663  0.49479976  0.28926076  1
  He  He15  1  0.50520024  0.50389337  0.71073924  1
  He  He16  1  0.79315412  0.79446099  0.28926076  1
  He  He17  1  0.49610663  0.20684588  0.00130687  1
  He  He18  1  0.20553901  0.49479976  0.99869313  1
  He  He19  1  0.67798514  0.13145485  0.81753907  1
  He  He20  1  0.31391578  0.86044607  0.18246093  1
  He  He21  1  0.13955393  0.32201486  0.45346971  1
  He  He22  1  0.86854515  0.68608422  0.54653029  1
  He  He23  1  0.31391578  0.13145485  0.45346971  1
  He  He24  1  0.67798514  0.86044607  0.54653029  1
  He  He25  1  0.86854515  0.32201486  0.18246093  1
  He  He26  1  0.13955393  0.68608422  0.81753907  1
  He  He27  1  0.25000000  0.75000000  0.50000000  1
  He  He28  1  0.75000000  0.25000000  0.50000000  1
  Li  Li29  1  0.00000000  0.00000000  0.00000000  1
  Be  Be30  1  0.71086391  0.28913609  0.00000000  1
  Be  Be31  1  0.28913609  0.71086391  -0.00000000  1
  Be  Be32  1  0.28913609  0.28913609  0.57827218  1
  Be  Be33  1  0.71086391  0.71086391  0.42172782  1
