# generated using pymatgen
data_H8He2Li3
_symmetry_space_group_name_H-M   'P 1'
_cell_length_a   8.35491381
_cell_length_b   5.01949979
_cell_length_c   7.64008921
_cell_angle_alpha   83.65063408
_cell_angle_beta   90.00000000
_cell_angle_gamma   90.00000000
_symmetry_Int_Tables_number   1
_chemical_formula_structural   H8He2Li3
_chemical_formula_sum   'H16 He4 Li6'
_cell_volume   318.44079164
_cell_formula_units_Z   2
loop_
 _symmetry_equiv_pos_site_id
 _symmetry_equiv_pos_as_xyz
  1  'x, y, z'
loop_
 _atom_site_type_symbol
 _atom_site_label
 _atom_site_symmetry_multiplicity
 _atom_site_fract_x
 _atom_site_fract_y
 _atom_site_fract_z
 _atom_site_occupancy
  H  H0  1  0.36909268  0.18214508  0.55430141  1
  H  H1  1  0.86909268  0.31785492  0.94569859  1
  H  H2  1  0.63090732  0.81785492  0.44569859  1
  H  H3  1  0.13090732  0.68214508  0.05430141  1
  H  H4  1  0.29926756  0.69136939  0.62898594  1
  H  H5  1  0.79926756  0.80863061  0.87101406  1
  H  H6  1  0.70073244  0.30863061  0.37101406  1
  H  H7  1  0.20073244  0.19136939  0.12898594  1
  H  H8  1  0.42206260  0.94350372  0.86196791  1
  H  H9  1  0.92206260  0.55649628  0.63803209  1
  H  H10  1  0.57793740  0.05649628  0.13803209  1
  H  H11  1  0.07793740  0.44350372  0.36196791  1
  H  H12  1  0.14030134  0.07227987  0.75489419  1
  H  H13  1  0.64030134  0.42772013  0.74510581  1
  H  H14  1  0.85969866  0.92772013  0.24510581  1
  H  H15  1  0.35969866  0.57227987  0.25489419  1
  He  He16  1  0.30787796  0.96889766  0.69924338  1
  He  He17  1  0.80787796  0.53110234  0.80075662  1
  He  He18  1  0.69212204  0.03110234  0.30075662  1
  He  He19  1  0.19212204  0.46889766  0.19924338  1
  Li  Li20  1  0.00000000  0.00000000  0.00000000  1
  Li  Li21  1  0.50000000  0.50000000  0.50000000  1
  Li  Li22  1  0.63850387  0.07637489  0.88659101  1
  Li  Li23  1  0.13850387  0.42362511  0.61340899  1
  Li  Li24  1  0.36149613  0.92362511  0.11340899  1
  Li  Li25  1  0.86149613  0.57637489  0.38659101  1
