# generated using pymatgen
data_HHeLi
_symmetry_space_group_name_H-M   'P 1'
_cell_length_a   3.88748327
_cell_length_b   6.12039432
_cell_length_c   6.77305979
_cell_angle_alpha   90.00000000
_cell_angle_beta   90.00000000
_cell_angle_gamma   90.00000000
_symmetry_Int_Tables_number   1
_chemical_formula_structural   HHeLi
_chemical_formula_sum   'H4 He4 Li4'
_cell_volume   161.15094098
_cell_formula_units_Z   4
loop_
 _symmetry_equiv_pos_site_id
 _symmetry_equiv_pos_as_xyz
  1  'x, y, z'
loop_
 _atom_site_type_symbol
 _atom_site_label
 _atom_site_symmetry_multiplicity
 _atom_site_fract_x
 _atom_site_fract_y
 _atom_site_fract_z
 _atom_site_occupancy
  H  H0  1  0.25000000  0.00236110  0.30874108  1
  H  H1  1  0.75000000  0.49763890  0.80874108  1
  H  H2  1  0.75000000  0.99763890  0.69125892  1
  H  H3  1  0.25000000  0.50236110  0.19125892  1
  He  He4  1  0.25000000  0.16637982  0.93297259  1
  He  He5  1  0.75000000  0.33362018  0.43297259  1
  He  He6  1  0.75000000  0.83362018  0.06702741  1
  He  He7  1  0.25000000  0.66637982  0.56702741  1
  Li  Li8  1  0.25000000  0.28932756  0.60854918  1
  Li  Li9  1  0.75000000  0.21067244  0.10854918  1
  Li  Li10  1  0.75000000  0.71067244  0.39145082  1
  Li  Li11  1  0.25000000  0.78932756  0.89145082  1
