# generated using pymatgen
data_H3HeLi8
_symmetry_space_group_name_H-M   'P 1'
_cell_length_a   5.05604432
_cell_length_b   5.05604432
_cell_length_c   6.43631967
_cell_angle_alpha   89.19775212
_cell_angle_beta   89.19775212
_cell_angle_gamma   66.38315758
_symmetry_Int_Tables_number   1
_chemical_formula_structural   H3HeLi8
_chemical_formula_sum   'H3 He1 Li8'
_cell_volume   150.73363615
_cell_formula_units_Z   1
loop_
 _symmetry_equiv_pos_site_id
 _symmetry_equiv_pos_as_xyz
  1  'x, y, z'
loop_
 _atom_site_type_symbol
 _atom_site_label
 _atom_site_symmetry_multiplicity
 _atom_site_fract_x
 _atom_site_fract_y
 _atom_site_fract_z
 _atom_site_occupancy
  H  H0  1  0.00000000  0.00000000  0.50000000  1
  H  H1  1  0.64255097  0.64255097  0.26035625  1
  H  H2  1  0.35744903  0.35744903  0.73964375  1
  He  He3  1  -0.00000000  -0.00000000  0.00000000  1
  Li  Li4  1  0.76822226  0.76822226  0.45495283  1
  Li  Li5  1  0.23177774  0.23177774  0.54504717  1
  Li  Li6  1  0.74110181  0.74110181  0.04454492  1
  Li  Li7  1  0.25889819  0.25889819  0.95545508  1
  Li  Li8  1  0.78291347  0.27386644  0.27208675  1
  Li  Li9  1  0.72613356  0.21708653  0.72791325  1
  Li  Li10  1  0.21708653  0.72613356  0.72791325  1
  Li  Li11  1  0.27386644  0.78291347  0.27208675  1
