# generated using pymatgen
data_H2HeLi4
_symmetry_space_group_name_H-M   'P 1'
_cell_length_a   7.54346598
_cell_length_b   7.19975113
_cell_length_c   8.87022465
_cell_angle_alpha   85.90288379
_cell_angle_beta   90.00000000
_cell_angle_gamma   90.00000000
_symmetry_Int_Tables_number   1
_chemical_formula_structural   H2HeLi4
_chemical_formula_sum   'H16 He8 Li32'
_cell_volume   480.52028658
_cell_formula_units_Z   8
loop_
 _symmetry_equiv_pos_site_id
 _symmetry_equiv_pos_as_xyz
  1  'x, y, z'
loop_
 _atom_site_type_symbol
 _atom_site_label
 _atom_site_symmetry_multiplicity
 _atom_site_fract_x
 _atom_site_fract_y
 _atom_site_fract_z
 _atom_site_occupancy
  H  H0  1  0.10040659  0.30245577  0.87985655  1
  H  H1  1  0.60040659  0.69754423  0.62014345  1
  H  H2  1  0.89959341  0.69754423  0.12014345  1
  H  H3  1  0.39959341  0.30245577  0.37985655  1
  H  H4  1  0.90241277  0.31238827  0.11653946  1
  H  H5  1  0.40241277  0.68761173  0.38346054  1
  H  H6  1  0.09758723  0.68761173  0.88346054  1
  H  H7  1  0.59758723  0.31238827  0.61653946  1
  H  H8  1  0.43612208  0.79504818  0.86848122  1
  H  H9  1  0.93612208  0.20495182  0.63151878  1
  H  H10  1  0.56387792  0.20495182  0.13151878  1
  H  H11  1  0.06387792  0.79504818  0.36848122  1
  H  H12  1  0.43161103  0.18230764  0.86209871  1
  H  H13  1  0.93161103  0.81769236  0.63790129  1
  H  H14  1  0.56838897  0.81769236  0.13790129  1
  H  H15  1  0.06838897  0.18230764  0.36209871  1
  He  He16  1  0.21522744  0.99907795  0.12435920  1
  He  He17  1  0.71522744  0.00092205  0.37564080  1
  He  He18  1  0.78477256  0.00092205  0.87564080  1
  He  He19  1  0.28477256  0.99907795  0.62435920  1
  He  He20  1  0.25725160  0.52961828  0.14242761  1
  He  He21  1  0.75725160  0.47038172  0.35757239  1
  He  He22  1  0.74274840  0.47038172  0.85757239  1
  He  He23  1  0.24274840  0.52961828  0.64242761  1
  Li  Li24  1  0.24802512  0.77760392  0.30751580  1
  Li  Li25  1  0.74802512  0.22239608  0.19248420  1
  Li  Li26  1  0.75197488  0.22239608  0.69248420  1
  Li  Li27  1  0.25197488  0.77760392  0.80751580  1
  Li  Li28  1  0.05848949  0.76735993  0.03137228  1
  Li  Li29  1  0.55848949  0.23264007  0.46862772  1
  Li  Li30  1  0.94151051  0.23264007  0.96862772  1
  Li  Li31  1  0.44151051  0.76735993  0.53137228  1
  Li  Li32  1  0.15627060  0.48924422  0.91993090  1
  Li  Li33  1  0.65627060  0.51075578  0.58006910  1
  Li  Li34  1  0.84372940  0.51075578  0.08006910  1
  Li  Li35  1  0.34372940  0.48924422  0.41993090  1
  Li  Li36  1  0.00608575  0.99047557  0.32822069  1
  Li  Li37  1  0.50608575  0.00952443  0.17177931  1
  Li  Li38  1  0.99391425  0.00952443  0.67177931  1
  Li  Li39  1  0.49391425  0.99047557  0.82822069  1
  Li  Li40  1  0.24812542  0.17001929  0.91860845  1
  Li  Li41  1  0.74812542  0.82998071  0.58139155  1
  Li  Li42  1  0.75187458  0.82998071  0.08139155  1
  Li  Li43  1  0.25187458  0.17001929  0.41860845  1
  Li  Li44  1  0.44264218  0.32148797  0.21643993  1
  Li  Li45  1  0.94264218  0.67851203  0.28356007  1
  Li  Li46  1  0.55735782  0.67851203  0.78356007  1
  Li  Li47  1  0.05735782  0.32148797  0.71643993  1
  Li  Li48  1  0.06080045  0.29702685  0.21495767  1
  Li  Li49  1  0.56080045  0.70297315  0.28504233  1
  Li  Li50  1  0.93919955  0.70297315  0.78504233  1
  Li  Li51  1  0.43919955  0.29702685  0.71495767  1
  Li  Li52  1  0.44141170  0.74146918  0.03066165  1
  Li  Li53  1  0.94141170  0.25853082  0.46933835  1
  Li  Li54  1  0.55858830  0.25853082  0.96933835  1
  Li  Li55  1  0.05858830  0.74146918  0.53066165  1
