# generated using pymatgen
data_H2He4Li
_symmetry_space_group_name_H-M   'P 1'
_cell_length_a   9.69541157
_cell_length_b   9.69541157
_cell_length_c   3.18355533
_cell_angle_alpha   90.00000000
_cell_angle_beta   90.00000000
_cell_angle_gamma   120.00073968
_symmetry_Int_Tables_number   1
_chemical_formula_structural   H2He4Li
_chemical_formula_sum   'H6 He12 Li3'
_cell_volume   259.16258114
_cell_formula_units_Z   3
loop_
 _symmetry_equiv_pos_site_id
 _symmetry_equiv_pos_as_xyz
  1  'x, y, z'
loop_
 _atom_site_type_symbol
 _atom_site_label
 _atom_site_symmetry_multiplicity
 _atom_site_fract_x
 _atom_site_fract_y
 _atom_site_fract_z
 _atom_site_occupancy
  H  H0  1  0.00000182  0.00000182  0.00000000  1
  H  H1  1  0.33331333  0.66668516  0.50000000  1
  H  H2  1  0.66668516  0.33331333  0.50000000  1
  H  H3  1  0.69330816  0.99999330  0.50000000  1
  H  H4  1  0.99999330  0.69330816  0.50000000  1
  H  H5  1  0.30668557  0.30668557  0.50000000  1
  He  He6  1  0.19387648  0.00000563  0.50000000  1
  He  He7  1  0.00000563  0.19387648  0.50000000  1
  He  He8  1  0.80612489  0.80612489  0.50000000  1
  He  He9  1  0.45720729  0.00000008  0.50000000  1
  He  He10  1  0.00000008  0.45720729  0.50000000  1
  He  He11  1  0.54278852  0.54278852  0.50000000  1
  He  He12  1  0.43211175  0.21494167  0.00000000  1
  He  He13  1  0.78507432  0.21716560  0.00000000  1
  He  He14  1  0.78282801  0.56789959  0.00000000  1
  He  He15  1  0.21494167  0.43211175  0.00000000  1
  He  He16  1  0.21716560  0.78507432  0.00000000  1
  He  He17  1  0.56789959  0.78282801  0.00000000  1
  Li  Li18  1  0.32956596  -0.00000790  0.00000000  1
  Li  Li19  1  -0.00000790  0.32956596  0.00000000  1
  Li  Li20  1  0.67043075  0.67043075  0.00000000  1
