# generated using pymatgen
data_H3He2Li5
_symmetry_space_group_name_H-M   'P 1'
_cell_length_a   8.29821161
_cell_length_b   8.29821161
_cell_length_c   4.04469603
_cell_angle_alpha   90.00000000
_cell_angle_beta   90.00000000
_cell_angle_gamma   90.00000000
_symmetry_Int_Tables_number   1
_chemical_formula_structural   H3He2Li5
_chemical_formula_sum   'H6 He4 Li10'
_cell_volume   278.51904640
_cell_formula_units_Z   2
loop_
 _symmetry_equiv_pos_site_id
 _symmetry_equiv_pos_as_xyz
  1  'x, y, z'
loop_
 _atom_site_type_symbol
 _atom_site_label
 _atom_site_symmetry_multiplicity
 _atom_site_fract_x
 _atom_site_fract_y
 _atom_site_fract_z
 _atom_site_occupancy
  H  H0  1  0.00000000  0.00000000  0.50000000  1
  H  H1  1  0.50000000  0.50000000  0.50000000  1
  H  H2  1  0.05790573  0.55790573  0.50000000  1
  H  H3  1  0.94209427  0.44209427  0.50000000  1
  H  H4  1  0.44209427  0.05790573  0.50000000  1
  H  H5  1  0.55790573  0.94209427  0.50000000  1
  He  He6  1  0.33609958  0.83609958  0.00000000  1
  He  He7  1  0.66390042  0.16390042  -0.00000000  1
  He  He8  1  0.16390042  0.33609958  -0.00000000  1
  He  He9  1  0.83609958  0.66390042  0.00000000  1
  Li  Li10  1  0.21263863  0.07470357  0.50000000  1
  Li  Li11  1  0.78736137  0.92529643  0.50000000  1
  Li  Li12  1  0.92529643  0.21263863  0.50000000  1
  Li  Li13  1  0.07470357  0.78736137  0.50000000  1
  Li  Li14  1  0.28736137  0.57470357  0.50000000  1
  Li  Li15  1  0.71263863  0.42529643  0.50000000  1
  Li  Li16  1  0.57470357  0.71263863  0.50000000  1
  Li  Li17  1  0.42529643  0.28736137  0.50000000  1
  Li  Li18  1  0.00000000  0.00000000  0.00000000  1
  Li  Li19  1  0.50000000  0.50000000  0.00000000  1
