# generated using pymatgen
data_HHe5Li2
_symmetry_space_group_name_H-M   'P 1'
_cell_length_a   8.00275954
_cell_length_b   8.00275954
_cell_length_c   7.23210055
_cell_angle_alpha   82.79694810
_cell_angle_beta   82.79694810
_cell_angle_gamma   46.27961849
_symmetry_Int_Tables_number   1
_chemical_formula_structural   HHe5Li2
_chemical_formula_sum   'H2 He10 Li4'
_cell_volume   331.61903118
_cell_formula_units_Z   2
loop_
 _symmetry_equiv_pos_site_id
 _symmetry_equiv_pos_as_xyz
  1  'x, y, z'
loop_
 _atom_site_type_symbol
 _atom_site_label
 _atom_site_symmetry_multiplicity
 _atom_site_fract_x
 _atom_site_fract_y
 _atom_site_fract_z
 _atom_site_occupancy
  H  H0  1  0.00000000  0.50000000  0.50000000  1
  H  H1  1  0.50000000  0.00000000  0.00000000  1
  He  He2  1  0.91737786  0.08262214  0.25000000  1
  He  He3  1  0.08262214  0.91737786  0.75000000  1
  He  He4  1  0.28610667  0.53006704  0.42815181  1
  He  He5  1  0.46993296  0.71389333  0.07184819  1
  He  He6  1  0.71389333  0.46993296  0.57184819  1
  He  He7  1  0.53006704  0.28610667  0.92815181  1
  He  He8  1  0.15185031  0.29023299  0.17589783  1
  He  He9  1  0.70976701  0.84814969  0.32410217  1
  He  He10  1  0.84814969  0.70976701  0.82410217  1
  He  He11  1  0.29023299  0.15185031  0.67589783  1
  Li  Li12  1  0.11131335  0.67676971  0.08042989  1
  Li  Li13  1  0.32323029  0.88868665  0.41957011  1
  Li  Li14  1  0.88868665  0.32323029  0.91957011  1
  Li  Li15  1  0.67676971  0.11131335  0.58042989  1
