# generated using pymatgen
data_H3HeLi2
_symmetry_space_group_name_H-M   'P 1'
_cell_length_a   6.71180653
_cell_length_b   6.71180653
_cell_length_c   6.14676759
_cell_angle_alpha   90.00000000
_cell_angle_beta   90.00000000
_cell_angle_gamma   111.75326192
_symmetry_Int_Tables_number   1
_chemical_formula_structural   H3HeLi2
_chemical_formula_sum   'H6 He2 Li4'
_cell_volume   257.18311983
_cell_formula_units_Z   2
loop_
 _symmetry_equiv_pos_site_id
 _symmetry_equiv_pos_as_xyz
  1  'x, y, z'
loop_
 _atom_site_type_symbol
 _atom_site_label
 _atom_site_symmetry_multiplicity
 _atom_site_fract_x
 _atom_site_fract_y
 _atom_site_fract_z
 _atom_site_occupancy
  H  H0  1  0.85260635  0.11191413  0.00320887  1
  H  H1  1  0.14739365  0.88808587  0.50320887  1
  H  H2  1  0.88808587  0.14739365  0.50320887  1
  H  H3  1  0.11191413  0.85260635  0.00320887  1
  H  H4  1  0.36163387  0.36163387  0.82175750  1
  H  H5  1  0.63836613  0.63836613  0.32175750  1
  He  He6  1  0.09278671  0.09278671  0.76150466  1
  He  He7  1  0.90721329  0.90721329  0.26150466  1
  Li  Li8  1  0.80476144  0.48045577  0.73516005  1
  Li  Li9  1  0.19523856  0.51954423  0.23516005  1
  Li  Li10  1  0.51954423  0.19523856  0.23516005  1
  Li  Li11  1  0.48045577  0.80476144  0.73516005  1
