# generated using pymatgen
data_H2He11Li4
_symmetry_space_group_name_H-M   'P 1'
_cell_length_a   7.75557535
_cell_length_b   7.11352419
_cell_length_c   9.91143105
_cell_angle_alpha   80.53936678
_cell_angle_beta   90.00000000
_cell_angle_gamma   90.00000000
_symmetry_Int_Tables_number   1
_chemical_formula_structural   H2He11Li4
_chemical_formula_sum   'H4 He22 Li8'
_cell_volume   539.37115938
_cell_formula_units_Z   2
loop_
 _symmetry_equiv_pos_site_id
 _symmetry_equiv_pos_as_xyz
  1  'x, y, z'
loop_
 _atom_site_type_symbol
 _atom_site_label
 _atom_site_symmetry_multiplicity
 _atom_site_fract_x
 _atom_site_fract_y
 _atom_site_fract_z
 _atom_site_occupancy
  H  H0  1  0.49968978  0.68231321  0.38461864  1
  H  H1  1  0.99968978  0.31768679  0.11538136  1
  H  H2  1  0.50031022  0.31768679  0.61538136  1
  H  H3  1  0.00031022  0.68231321  0.88461864  1
  He  He4  1  0.65032301  0.84134665  0.48523810  1
  He  He5  1  0.15032301  0.15865335  0.01476190  1
  He  He6  1  0.34967699  0.15865335  0.51476190  1
  He  He7  1  0.84967699  0.84134665  0.98523810  1
  He  He8  1  0.63889963  0.43799469  0.44913310  1
  He  He9  1  0.13889963  0.56200531  0.05086690  1
  He  He10  1  0.36110037  0.56200531  0.55086690  1
  He  He11  1  0.86110037  0.43799469  0.94913310  1
  He  He12  1  0.36753694  0.52970919  0.26392727  1
  He  He13  1  0.86753694  0.47029081  0.23607273  1
  He  He14  1  0.63246306  0.47029081  0.73607273  1
  He  He15  1  0.13246306  0.52970919  0.76392727  1
  He  He16  1  0.31054052  0.87410522  0.34661548  1
  He  He17  1  0.81054052  0.12589478  0.15338452  1
  He  He18  1  0.68945948  0.12589478  0.65338452  1
  He  He19  1  0.18945948  0.87410522  0.84661548  1
  He  He20  1  0.61383507  0.79680274  0.20727207  1
  He  He21  1  0.11383507  0.20319726  0.29272793  1
  He  He22  1  0.38616493  0.20319726  0.79272793  1
  He  He23  1  0.88616493  0.79680274  0.70727207  1
  He  He24  1  0.00000000  0.50000000  0.50000000  1
  He  He25  1  0.50000000  0.50000000  0.00000000  1
  Li  Li26  1  0.85136854  0.85662001  0.17405343  1
  Li  Li27  1  0.35136854  0.14337999  0.32594657  1
  Li  Li28  1  0.14863146  0.14337999  0.82594657  1
  Li  Li29  1  0.64863146  0.85662001  0.67405343  1
  Li  Li30  1  0.85906120  0.32815773  0.41350704  1
  Li  Li31  1  0.35906120  0.67184227  0.08649296  1
  Li  Li32  1  0.14093880  0.67184227  0.58649296  1
  Li  Li33  1  0.64093880  0.32815773  0.91350704  1
