# generated using pymatgen
data_H2He9LiBe2
_symmetry_space_group_name_H-M   'P 1'
_cell_length_a   13.17059989
_cell_length_b   13.17059989
_cell_length_c   5.60604246
_cell_angle_alpha   90.00000000
_cell_angle_beta   90.00000000
_cell_angle_gamma   155.24073706
_symmetry_Int_Tables_number   1
_chemical_formula_structural   H2He9LiBe2
_chemical_formula_sum   'H4 He18 Li2 Be4'
_cell_volume   407.26863154
_cell_formula_units_Z   2
loop_
 _symmetry_equiv_pos_site_id
 _symmetry_equiv_pos_as_xyz
  1  'x, y, z'
loop_
 _atom_site_type_symbol
 _atom_site_label
 _atom_site_symmetry_multiplicity
 _atom_site_fract_x
 _atom_site_fract_y
 _atom_site_fract_z
 _atom_site_occupancy
  H  H0  1  0.79522879  0.39380547  0.47926975  1
  H  H1  1  0.39380547  0.79522879  0.52073025  1
  H  H2  1  0.89380547  0.29522879  0.97926975  1
  H  H3  1  0.29522879  0.89380547  0.02073025  1
  He  He4  1  0.47225841  0.47225841  0.00000000  1
  He  He5  1  0.97225841  0.97225841  0.50000000  1
  He  He6  1  0.80286945  0.11601386  0.53339108  1
  He  He7  1  0.11601386  0.80286945  0.46660892  1
  He  He8  1  0.61601386  0.30286945  0.03339108  1
  He  He9  1  0.30286945  0.61601386  0.96660892  1
  He  He10  1  0.04317442  0.54428863  0.73769069  1
  He  He11  1  0.54428863  0.04317442  0.26230931  1
  He  He12  1  0.04428863  0.54317442  0.23769069  1
  He  He13  1  0.54317442  0.04428863  0.76230931  1
  He  He14  1  0.31998915  0.16637289  0.73123513  1
  He  He15  1  0.16637289  0.31998915  0.26876487  1
  He  He16  1  0.66637289  0.81998915  0.23123513  1
  He  He17  1  0.81998915  0.66637289  0.76876487  1
  He  He18  1  0.27700512  0.13197465  0.23078203  1
  He  He19  1  0.13197465  0.27700512  0.76921797  1
  He  He20  1  0.63197465  0.77700512  0.73078203  1
  He  He21  1  0.77700512  0.63197465  0.26921797  1
  Li  Li22  1  0.97385639  0.97385639  0.00000000  1
  Li  Li23  1  0.47385639  0.47385639  0.50000000  1
  Be  Be24  1  0.89580063  0.06066214  0.50263889  1
  Be  Be25  1  0.06066214  0.89580063  0.49736111  1
  Be  Be26  1  0.56066214  0.39580063  0.00263889  1
  Be  Be27  1  0.39580063  0.56066214  0.99736111  1
