# generated using pymatgen
data_H6He
_symmetry_space_group_name_H-M   'P 1'
_cell_length_a   5.22799604
_cell_length_b   9.00527875
_cell_length_c   9.90413229
_cell_angle_alpha   90.00000000
_cell_angle_beta   90.00000000
_cell_angle_gamma   90.00000000
_symmetry_Int_Tables_number   1
_chemical_formula_structural   H6He
_chemical_formula_sum   'H24 He4'
_cell_volume   466.28220700
_cell_formula_units_Z   4
loop_
 _symmetry_equiv_pos_site_id
 _symmetry_equiv_pos_as_xyz
  1  'x, y, z'
loop_
 _atom_site_type_symbol
 _atom_site_label
 _atom_site_symmetry_multiplicity
 _atom_site_fract_x
 _atom_site_fract_y
 _atom_site_fract_z
 _atom_site_occupancy
  H  H0  1  0.37660254  0.25000000  0.76090766  1
  H  H1  1  0.87660254  0.75000000  0.73909234  1
  H  H2  1  0.62339746  0.75000000  0.23909234  1
  H  H3  1  0.12339746  0.25000000  0.26090766  1
  H  H4  1  0.93924916  0.39629890  0.76542134  1
  H  H5  1  0.43924916  0.60370110  0.73457866  1
  H  H6  1  0.06075084  0.89629890  0.23457866  1
  H  H7  1  0.56075084  0.10370110  0.26542134  1
  H  H8  1  0.06075084  0.60370110  0.23457866  1
  H  H9  1  0.56075084  0.39629890  0.26542134  1
  H  H10  1  0.93924916  0.10370110  0.76542134  1
  H  H11  1  0.43924916  0.89629890  0.73457866  1
  H  H12  1  0.80220489  0.25000000  0.98470648  1
  H  H13  1  0.30220489  0.75000000  0.51529352  1
  H  H14  1  0.19779511  0.75000000  0.01529352  1
  H  H15  1  0.69779511  0.25000000  0.48470648  1
  H  H16  1  0.23973482  0.39659915  0.97968760  1
  H  H17  1  0.73973482  0.60340085  0.52031240  1
  H  H18  1  0.76026518  0.89659915  0.02031240  1
  H  H19  1  0.26026518  0.10340085  0.47968760  1
  H  H20  1  0.76026518  0.60340085  0.02031240  1
  H  H21  1  0.26026518  0.39659915  0.47968760  1
  H  H22  1  0.23973482  0.10340085  0.97968760  1
  H  H23  1  0.73973482  0.89659915  0.52031240  1
  He  He24  1  0.08899542  0.25000000  0.87276472  1
  He  He25  1  0.58899542  0.75000000  0.62723528  1
  He  He26  1  0.91100458  0.75000000  0.12723528  1
  He  He27  1  0.41100458  0.25000000  0.37276472  1
