# generated using pymatgen
data_H6HeLi3BeB12
_symmetry_space_group_name_H-M   'P 1'
_cell_length_a   8.39973291
_cell_length_b   8.39973291
_cell_length_c   8.39973291
_cell_angle_alpha   69.45386541
_cell_angle_beta   69.45386541
_cell_angle_gamma   69.45386541
_symmetry_Int_Tables_number   1
_chemical_formula_structural   H6HeLi3BeB12
_chemical_formula_sum   'H12 He2 Li6 Be2 B24'
_cell_volume   501.80715997
_cell_formula_units_Z   2
loop_
 _symmetry_equiv_pos_site_id
 _symmetry_equiv_pos_as_xyz
  1  'x, y, z'
loop_
 _atom_site_type_symbol
 _atom_site_label
 _atom_site_symmetry_multiplicity
 _atom_site_fract_x
 _atom_site_fract_y
 _atom_site_fract_z
 _atom_site_occupancy
  H  H0  1  0.69313987  0.48381323  0.06772305  1
  H  H1  1  0.48381323  0.06772305  0.69313987  1
  H  H2  1  0.06772305  0.69313987  0.48381323  1
  H  H3  1  0.30686013  0.51618677  0.93227695  1
  H  H4  1  0.51618677  0.93227695  0.30686013  1
  H  H5  1  0.93227695  0.30686013  0.51618677  1
  H  H6  1  0.13388744  0.68731453  0.16551351  1
  H  H7  1  0.68731453  0.16551351  0.13388744  1
  H  H8  1  0.16551351  0.13388744  0.68731453  1
  H  H9  1  0.86611256  0.31268547  0.83448649  1
  H  H10  1  0.31268547  0.83448649  0.86611256  1
  H  H11  1  0.83448649  0.86611256  0.31268547  1
  He  He12  1  0.85183258  0.85183258  0.85183258  1
  He  He13  1  0.14816742  0.14816742  0.14816742  1
  Li  Li14  1  0.78441955  0.59628358  0.27888462  1
  Li  Li15  1  0.59628358  0.27888462  0.78441955  1
  Li  Li16  1  0.27888462  0.78441955  0.59628358  1
  Li  Li17  1  0.21558045  0.40371642  0.72111538  1
  Li  Li18  1  0.40371642  0.72111538  0.21558045  1
  Li  Li19  1  0.72111538  0.21558045  0.40371642  1
  Be  Be20  1  0.66775308  0.66775308  0.66775308  1
  Be  Be21  1  0.33224692  0.33224692  0.33224692  1
  B  B22  1  0.90324221  0.80746336  0.47042065  1
  B  B23  1  0.80746336  0.47042065  0.90324221  1
  B  B24  1  0.47042065  0.90324221  0.80746336  1
  B  B25  1  0.09675779  0.19253664  0.52957935  1
  B  B26  1  0.19253664  0.52957935  0.09675779  1
  B  B27  1  0.52957935  0.09675779  0.19253664  1
  B  B28  1  0.65926416  0.82169345  0.37563434  1
  B  B29  1  0.82169345  0.37563434  0.65926416  1
  B  B30  1  0.37563434  0.65926416  0.82169345  1
  B  B31  1  0.34073584  0.17830655  0.62436566  1
  B  B32  1  0.17830655  0.62436566  0.34073584  1
  B  B33  1  0.62436566  0.34073584  0.17830655  1
  B  B34  1  0.94450550  0.75975982  0.18493660  1
  B  B35  1  0.75975982  0.18493660  0.94450550  1
  B  B36  1  0.18493660  0.94450550  0.75975982  1
  B  B37  1  0.05549450  0.24024018  0.81506340  1
  B  B38  1  0.24024018  0.81506340  0.05549450  1
  B  B39  1  0.81506340  0.05549450  0.24024018  1
  B  B40  1  0.65289168  0.63242537  0.11773617  1
  B  B41  1  0.63242537  0.11773617  0.65289168  1
  B  B42  1  0.11773617  0.65289168  0.63242537  1
  B  B43  1  0.34710832  0.36757463  0.88226383  1
  B  B44  1  0.36757463  0.88226383  0.34710832  1
  B  B45  1  0.88226383  0.34710832  0.36757463  1
