# generated using pymatgen
data_HHe5Li3
_symmetry_space_group_name_H-M   'P 1'
_cell_length_a   9.46565271
_cell_length_b   9.46565271
_cell_length_c   6.28256741
_cell_angle_alpha   90.00000000
_cell_angle_beta   90.00000000
_cell_angle_gamma   120.00002308
_symmetry_Int_Tables_number   1
_chemical_formula_structural   HHe5Li3
_chemical_formula_sum   'H2 He10 Li6'
_cell_volume   487.49348934
_cell_formula_units_Z   2
loop_
 _symmetry_equiv_pos_site_id
 _symmetry_equiv_pos_as_xyz
  1  'x, y, z'
loop_
 _atom_site_type_symbol
 _atom_site_label
 _atom_site_symmetry_multiplicity
 _atom_site_fract_x
 _atom_site_fract_y
 _atom_site_fract_z
 _atom_site_occupancy
  H  H0  1  -0.00000000  -0.00000000  0.00000000  1
  H  H1  1  0.00000000  0.00000000  0.50000000  1
  He  He2  1  0.26135001  0.00000136  0.25000000  1
  He  He3  1  0.00000136  0.26135001  0.25000000  1
  He  He4  1  0.73864987  0.73864987  0.25000000  1
  He  He5  1  0.73864999  0.99999864  0.75000000  1
  He  He6  1  0.99999864  0.73864999  0.75000000  1
  He  He7  1  0.26135013  0.26135013  0.75000000  1
  He  He8  1  0.33333255  0.66666745  -0.00000000  1
  He  He9  1  0.66666745  0.33333255  0.50000000  1
  He  He10  1  0.66666745  0.33333255  0.00000000  1
  He  He11  1  0.33333255  0.66666745  0.50000000  1
  Li  Li12  1  0.62018376  0.00000099  0.25000000  1
  Li  Li13  1  0.00000099  0.62018376  0.25000000  1
  Li  Li14  1  0.37981924  0.37981924  0.25000000  1
  Li  Li15  1  0.37981624  -0.00000099  0.75000000  1
  Li  Li16  1  -0.00000099  0.37981624  0.75000000  1
  Li  Li17  1  0.62018076  0.62018076  0.75000000  1
