# generated using pymatgen
data_H3He12Li
_symmetry_space_group_name_H-M   'P 1'
_cell_length_a   9.28523276
_cell_length_b   9.28791350
_cell_length_c   5.59990538
_cell_angle_alpha   90.00000000
_cell_angle_beta   90.00000000
_cell_angle_gamma   119.98750865
_symmetry_Int_Tables_number   1
_chemical_formula_structural   H3He12Li
_chemical_formula_sum   'H6 He24 Li2'
_cell_volume   418.28946777
_cell_formula_units_Z   2
loop_
 _symmetry_equiv_pos_site_id
 _symmetry_equiv_pos_as_xyz
  1  'x, y, z'
loop_
 _atom_site_type_symbol
 _atom_site_label
 _atom_site_symmetry_multiplicity
 _atom_site_fract_x
 _atom_site_fract_y
 _atom_site_fract_z
 _atom_site_occupancy
  H  H0  1  0.38864420  0.29238923  0.25000000  1
  H  H1  1  0.70747497  0.09610133  0.25000000  1
  H  H2  1  0.90385174  0.61152236  0.25000000  1
  H  H3  1  0.61135580  0.70761077  0.75000000  1
  H  H4  1  0.29252503  0.90389867  0.75000000  1
  H  H5  1  0.09614826  0.38847764  0.75000000  1
  He  He6  1  0.44399990  0.47062518  0.25000000  1
  He  He7  1  0.52942352  0.97343731  0.25000000  1
  He  He8  1  0.02666043  0.55598282  0.25000000  1
  He  He9  1  0.55600010  0.52937482  0.75000000  1
  He  He10  1  0.47057648  0.02656269  0.75000000  1
  He  He11  1  0.97333957  0.44401718  0.75000000  1
  He  He12  1  0.21185731  0.18957296  0.25000000  1
  He  He13  1  0.81046639  0.02231688  0.25000000  1
  He  He14  1  0.97767294  0.78809263  0.25000000  1
  He  He15  1  0.78814269  0.81042704  0.75000000  1
  He  He16  1  0.18953361  0.97768312  0.75000000  1
  He  He17  1  0.02232706  0.21190737  0.75000000  1
  He  He18  1  0.53990244  0.74397050  0.96075201  1
  He  He19  1  0.25602476  0.79591112  0.96063399  1
  He  He20  1  0.20412305  0.46013463  0.96075212  1
  He  He21  1  0.46009756  0.25602950  0.46075201  1
  He  He22  1  0.74397524  0.20408888  0.46063399  1
  He  He23  1  0.79587695  0.53986537  0.46075212  1
  He  He24  1  0.46009756  0.25602950  0.03924799  1
  He  He25  1  0.74397524  0.20408888  0.03936601  1
  He  He26  1  0.79587695  0.53986537  0.03924788  1
  He  He27  1  0.53990244  0.74397050  0.53924799  1
  He  He28  1  0.25602476  0.79591112  0.53936601  1
  He  He29  1  0.20412305  0.46013463  0.53924788  1
  Li  Li30  1  0.33327591  0.66670301  0.25000000  1
  Li  Li31  1  0.66672409  0.33329699  0.75000000  1
