# generated using pymatgen
data_HHeLi3Be7B
_symmetry_space_group_name_H-M   'P 1'
_cell_length_a   6.81737837
_cell_length_b   5.21663292
_cell_length_c   9.07602657
_cell_angle_alpha   89.87000407
_cell_angle_beta   90.00000000
_cell_angle_gamma   90.00000000
_symmetry_Int_Tables_number   1
_chemical_formula_structural   HHeLi3Be7B
_chemical_formula_sum   'H2 He2 Li6 Be14 B2'
_cell_volume   322.77680346
_cell_formula_units_Z   2
loop_
 _symmetry_equiv_pos_site_id
 _symmetry_equiv_pos_as_xyz
  1  'x, y, z'
loop_
 _atom_site_type_symbol
 _atom_site_label
 _atom_site_symmetry_multiplicity
 _atom_site_fract_x
 _atom_site_fract_y
 _atom_site_fract_z
 _atom_site_occupancy
  H  H0  1  0.25000000  0.26419228  0.06084428  1
  H  H1  1  0.75000000  0.73580772  0.93915572  1
  He  He2  1  0.25000000  0.22130307  0.36150943  1
  He  He3  1  0.75000000  0.77869693  0.63849057  1
  Li  Li4  1  0.00218351  0.24830828  0.74055990  1
  Li  Li5  1  0.50218351  0.75169172  0.25944010  1
  Li  Li6  1  0.99781649  0.75169172  0.25944010  1
  Li  Li7  1  0.49781649  0.24830828  0.74055990  1
  Li  Li8  1  0.75000000  0.23913972  0.08284984  1
  Li  Li9  1  0.25000000  0.76086028  0.91715016  1
  Be  Be10  1  0.25000000  0.03909310  0.12324875  1
  Be  Be11  1  0.75000000  0.96090690  0.87675125  1
  Be  Be12  1  0.25000000  0.46845857  0.14340774  1
  Be  Be13  1  0.75000000  0.53154143  0.85659226  1
  Be  Be14  1  0.25000000  0.28498823  0.91854309  1
  Be  Be15  1  0.75000000  0.71501177  0.08145691  1
  Be  Be16  1  0.56697147  0.21752744  0.32035506  1
  Be  Be17  1  0.06697147  0.78247256  0.67964494  1
  Be  Be18  1  0.43302853  0.78247256  0.67964494  1
  Be  Be19  1  0.93302853  0.21752744  0.32035506  1
  Be  Be20  1  0.75000000  0.17569789  0.56793705  1
  Be  Be21  1  0.25000000  0.82430211  0.43206295  1
  Be  Be22  1  0.25000000  0.40350893  0.57018313  1
  Be  Be23  1  0.75000000  0.59649107  0.42981687  1
  B  B24  1  0.75000000  0.29838081  0.41187707  1
  B  B25  1  0.25000000  0.70161919  0.58812293  1
