# generated using pymatgen
data_H3He2
_symmetry_space_group_name_H-M   'P 1'
_cell_length_a   7.46497393
_cell_length_b   7.46497393
_cell_length_c   8.12897827
_cell_angle_alpha   75.90093923
_cell_angle_beta   75.90093923
_cell_angle_gamma   52.90657587
_symmetry_Int_Tables_number   1
_chemical_formula_structural   H3He2
_chemical_formula_sum   'H6 He4'
_cell_volume   347.70005168
_cell_formula_units_Z   2
loop_
 _symmetry_equiv_pos_site_id
 _symmetry_equiv_pos_as_xyz
  1  'x, y, z'
loop_
 _atom_site_type_symbol
 _atom_site_label
 _atom_site_symmetry_multiplicity
 _atom_site_fract_x
 _atom_site_fract_y
 _atom_site_fract_z
 _atom_site_occupancy
  H  H0  1  0.13436987  0.86563013  0.25000000  1
  H  H1  1  0.86563013  0.13436987  0.75000000  1
  H  H2  1  0.96517401  0.67659662  0.57492171  1
  H  H3  1  0.32340338  0.03482599  0.92507829  1
  H  H4  1  0.03482599  0.32340338  0.42507829  1
  H  H5  1  0.67659662  0.96517401  0.07492171  1
  He  He6  1  0.76372585  0.45267917  0.04798918  1
  He  He7  1  0.54732083  0.23627415  0.45201082  1
  He  He8  1  0.23627415  0.54732083  0.95201082  1
  He  He9  1  0.45267917  0.76372585  0.54798918  1
