# generated using pymatgen
data_H2He3
_symmetry_space_group_name_H-M   'P 1'
_cell_length_a   10.34353716
_cell_length_b   8.57281687
_cell_length_c   8.40882719
_cell_angle_alpha   119.36489291
_cell_angle_beta   113.97234323
_cell_angle_gamma   78.50917294
_symmetry_Int_Tables_number   1
_chemical_formula_structural   H2He3
_chemical_formula_sum   'H8 He12'
_cell_volume   593.78070112
_cell_formula_units_Z   4
loop_
 _symmetry_equiv_pos_site_id
 _symmetry_equiv_pos_as_xyz
  1  'x, y, z'
loop_
 _atom_site_type_symbol
 _atom_site_label
 _atom_site_symmetry_multiplicity
 _atom_site_fract_x
 _atom_site_fract_y
 _atom_site_fract_z
 _atom_site_occupancy
  H  H0  1  0.47963237  0.25011582  0.73992606  1
  H  H1  1  0.02457005  0.24978455  0.01207563  1
  H  H2  1  0.52500763  0.74988418  0.26239394  1
  H  H3  1  0.98006995  0.75021545  0.99024437  1
  H  H4  1  0.50150684  0.25005798  0.25082395  1
  H  H5  1  0.00188339  0.25000312  0.50089942  1
  H  H6  1  0.50313316  0.74994202  0.75149605  1
  H  H7  1  0.00275661  0.74999688  0.50142058  1
  He  He8  1  0.75230206  0.53975593  0.02102120  1
  He  He9  1  0.75226352  0.96021795  0.73127133  1
  He  He10  1  0.25233794  0.46024407  0.98129880  1
  He  He11  1  0.25237648  0.03978205  0.27104867  1
  He  He12  1  0.74805827  0.39522140  0.72248270  1
  He  He13  1  0.75623598  0.10470710  0.58132208  1
  He  He14  1  0.75679425  0.39525851  0.17517264  1
  He  He15  1  0.74754028  0.10479611  0.02534308  1
  He  He16  1  0.25658173  0.60477860  0.27983730  1
  He  He17  1  0.24840402  0.89529290  0.42099792  1
  He  He18  1  0.24784575  0.60474149  0.82714736  1
  He  He19  1  0.25709972  0.89520389  0.97697692  1
