# generated using pymatgen
data_HHe2
_symmetry_space_group_name_H-M   'P 1'
_cell_length_a   4.13165349
_cell_length_b   8.13239731
_cell_length_c   16.40673766
_cell_angle_alpha   90.00000000
_cell_angle_beta   90.00000000
_cell_angle_gamma   90.00000000
_symmetry_Int_Tables_number   1
_chemical_formula_structural   HHe2
_chemical_formula_sum   'H8 He16'
_cell_volume   551.27044933
_cell_formula_units_Z   8
loop_
 _symmetry_equiv_pos_site_id
 _symmetry_equiv_pos_as_xyz
  1  'x, y, z'
loop_
 _atom_site_type_symbol
 _atom_site_label
 _atom_site_symmetry_multiplicity
 _atom_site_fract_x
 _atom_site_fract_y
 _atom_site_fract_z
 _atom_site_occupancy
  H  H0  1  0.77982426  0.12901421  0.88843389  1
  H  H1  1  0.27982426  0.37098579  0.11156611  1
  H  H2  1  0.22017574  0.87098579  0.38843389  1
  H  H3  1  0.72017574  0.62901421  0.61156611  1
  H  H4  1  0.22017574  0.87098579  0.11156611  1
  H  H5  1  0.72017574  0.62901421  0.88843389  1
  H  H6  1  0.77982426  0.12901421  0.61156611  1
  H  H7  1  0.27982426  0.37098579  0.38843389  1
  He  He8  1  0.85763542  0.39149310  0.75000000  1
  He  He9  1  0.35763542  0.10850690  0.25000000  1
  He  He10  1  0.14236458  0.60850690  0.25000000  1
  He  He11  1  0.64236458  0.89149310  0.75000000  1
  He  He12  1  0.33650276  0.10046396  0.75000000  1
  He  He13  1  0.83650276  0.39953604  0.25000000  1
  He  He14  1  0.66349724  0.89953604  0.25000000  1
  He  He15  1  0.16349724  0.60046396  0.75000000  1
  He  He16  1  0.25919796  0.37490687  0.93304716  1
  He  He17  1  0.75919796  0.12509313  0.06695284  1
  He  He18  1  0.74080204  0.62509313  0.43304716  1
  He  He19  1  0.24080204  0.87490687  0.56695284  1
  He  He20  1  0.74080204  0.62509313  0.06695284  1
  He  He21  1  0.24080204  0.87490687  0.93304716  1
  He  He22  1  0.25919796  0.37490687  0.56695284  1
  He  He23  1  0.75919796  0.12509313  0.43304716  1
