# generated using pymatgen
data_H20He6Li3
_symmetry_space_group_name_H-M   'P 1'
_cell_length_a   8.74736733
_cell_length_b   8.74736733
_cell_length_c   8.74736733
_cell_angle_alpha   60.00000000
_cell_angle_beta   60.00000000
_cell_angle_gamma   60.00000000
_symmetry_Int_Tables_number   1
_chemical_formula_structural   H20He6Li3
_chemical_formula_sum   'H20 He6 Li3'
_cell_volume   473.27884758
_cell_formula_units_Z   1
loop_
 _symmetry_equiv_pos_site_id
 _symmetry_equiv_pos_as_xyz
  1  'x, y, z'
loop_
 _atom_site_type_symbol
 _atom_site_label
 _atom_site_symmetry_multiplicity
 _atom_site_fract_x
 _atom_site_fract_y
 _atom_site_fract_z
 _atom_site_occupancy
  H  H0  1  0.15635179  0.61454940  0.61454940  1
  H  H1  1  0.61454940  0.61454940  0.15635179  1
  H  H2  1  0.61454940  0.15635179  0.61454940  1
  H  H3  1  0.61454940  0.61454940  0.61454940  1
  H  H4  1  0.38545060  0.38545060  0.84364821  1
  H  H5  1  0.84364821  0.38545060  0.38545060  1
  H  H6  1  0.38545060  0.84364821  0.38545060  1
  H  H7  1  0.38545060  0.38545060  0.38545060  1
  H  H8  1  0.34657785  0.00000000  0.00000000  1
  H  H9  1  0.00000000  0.65342215  0.34657785  1
  H  H10  1  -0.00000000  0.34657785  0.65342215  1
  H  H11  1  0.65342215  0.00000000  -0.00000000  1
  H  H12  1  0.34657785  0.65342215  -0.00000000  1
  H  H13  1  -0.00000000  0.00000000  0.65342215  1
  H  H14  1  0.00000000  -0.00000000  0.34657785  1
  H  H15  1  0.65342215  0.34657785  0.00000000  1
  H  H16  1  0.34657785  0.00000000  0.65342215  1
  H  H17  1  0.00000000  0.34657785  0.00000000  1
  H  H18  1  0.00000000  0.65342215  -0.00000000  1
  H  H19  1  0.65342215  -0.00000000  0.34657785  1
  He  He20  1  0.26780423  0.73219577  0.73219577  1
  He  He21  1  0.73219577  0.26780423  0.26780423  1
  He  He22  1  0.26780423  0.26780423  0.73219577  1
  He  He23  1  0.73219577  0.73219577  0.26780423  1
  He  He24  1  0.26780423  0.73219577  0.26780423  1
  He  He25  1  0.73219577  0.26780423  0.73219577  1
  Li  Li26  1  0.00000000  -0.00000000  0.00000000  1
  Li  Li27  1  0.75000000  0.75000000  0.75000000  1
  Li  Li28  1  0.25000000  0.25000000  0.25000000  1
