# generated using pymatgen
data_H2He2Li
_symmetry_space_group_name_H-M   'P 1'
_cell_length_a   3.69248872
_cell_length_b   3.69245070
_cell_length_c   6.46885289
_cell_angle_alpha   89.99840241
_cell_angle_beta   90.00000000
_cell_angle_gamma   120.00034059
_symmetry_Int_Tables_number   1
_chemical_formula_structural   H2He2Li
_chemical_formula_sum   'H2 He2 Li1'
_cell_volume   76.38187203
_cell_formula_units_Z   1
loop_
 _symmetry_equiv_pos_site_id
 _symmetry_equiv_pos_as_xyz
  1  'x, y, z'
loop_
 _atom_site_type_symbol
 _atom_site_label
 _atom_site_symmetry_multiplicity
 _atom_site_fract_x
 _atom_site_fract_y
 _atom_site_fract_z
 _atom_site_occupancy
  H  H0  1  0.66667768  0.33335536  0.28383410  1
  H  H1  1  0.33332232  0.66664464  0.71616590  1
  He  He2  1  0.66666541  0.33333082  0.62955580  1
  He  He3  1  0.33333459  0.66666918  0.37044420  1
  Li  Li4  1  -0.00000000  -0.00000000  0.00000000  1
