# generated using pymatgen
data_HHe8Li12(Be3B)2
_symmetry_space_group_name_H-M   'P 1'
_cell_length_a   18.16846575
_cell_length_b   5.08148186
_cell_length_c   7.14818341
_cell_angle_alpha   78.09672443
_cell_angle_beta   90.00000000
_cell_angle_gamma   90.00000000
_symmetry_Int_Tables_number   1
_chemical_formula_structural   HHe8Li12(Be3B)2
_chemical_formula_sum   'H2 He16 Li24 Be12 B4'
_cell_volume   645.74924348
_cell_formula_units_Z   2
loop_
 _symmetry_equiv_pos_site_id
 _symmetry_equiv_pos_as_xyz
  1  'x, y, z'
loop_
 _atom_site_type_symbol
 _atom_site_label
 _atom_site_symmetry_multiplicity
 _atom_site_fract_x
 _atom_site_fract_y
 _atom_site_fract_z
 _atom_site_occupancy
  H  H0  1  0.00000000  0.00000000  0.50000000  1
  H  H1  1  0.50000000  0.50000000  0.00000000  1
  He  He2  1  0.67583104  0.03224404  0.90098298  1
  He  He3  1  0.17583104  0.46775596  0.59901702  1
  He  He4  1  0.32416896  0.96775596  0.09901702  1
  He  He5  1  0.82416896  0.53224404  0.40098298  1
  He  He6  1  0.89847909  0.93190644  0.05030107  1
  He  He7  1  0.39847909  0.56809356  0.44969893  1
  He  He8  1  0.10152091  0.06809356  0.94969893  1
  He  He9  1  0.60152091  0.43190644  0.55030107  1
  He  He10  1  0.81010572  0.16834655  0.76514797  1
  He  He11  1  0.31010572  0.33165345  0.73485203  1
  He  He12  1  0.18989428  0.83165345  0.23485203  1
  He  He13  1  0.68989428  0.66834655  0.26514797  1
  He  He14  1  0.72465470  0.65632297  0.65048910  1
  He  He15  1  0.22465470  0.84367703  0.84951090  1
  He  He16  1  0.27534530  0.34367703  0.34951090  1
  He  He17  1  0.77534530  0.15632297  0.15048910  1
  Li  Li18  1  0.88323963  0.69887744  0.53032462  1
  Li  Li19  1  0.38323963  0.80112256  0.96967538  1
  Li  Li20  1  0.11676037  0.30112256  0.46967538  1
  Li  Li21  1  0.61676037  0.19887744  0.03032462  1
  Li  Li22  1  0.94522669  0.56155691  0.67511798  1
  Li  Li23  1  0.44522669  0.93844309  0.82488202  1
  Li  Li24  1  0.05477331  0.43844309  0.32488202  1
  Li  Li25  1  0.55477331  0.06155691  0.17511798  1
  Li  Li26  1  0.88731165  0.31216943  0.35665070  1
  Li  Li27  1  0.38731165  0.18783057  0.14334930  1
  Li  Li28  1  0.11268835  0.68783057  0.64334930  1
  Li  Li29  1  0.61268835  0.81216943  0.85665070  1
  Li  Li30  1  0.91116017  0.11954573  0.21544092  1
  Li  Li31  1  0.41116017  0.38045427  0.28455908  1
  Li  Li32  1  0.08883983  0.88045427  0.78455908  1
  Li  Li33  1  0.58883983  0.61954573  0.71544092  1
  Li  Li34  1  0.02162760  0.24494392  0.82909135  1
  Li  Li35  1  0.52162760  0.25505608  0.67090865  1
  Li  Li36  1  0.97837240  0.75505608  0.17090865  1
  Li  Li37  1  0.47837240  0.74494392  0.32909135  1
  Li  Li38  1  0.93985998  0.14492970  0.84285326  1
  Li  Li39  1  0.43985998  0.35507030  0.65714674  1
  Li  Li40  1  0.06014002  0.85507030  0.15714674  1
  Li  Li41  1  0.56014002  0.64492970  0.34285326  1
  Be  Be42  1  0.92243421  0.74171469  0.61564677  1
  Be  Be43  1  0.42243421  0.75828531  0.88435323  1
  Be  Be44  1  0.07756579  0.25828531  0.38435323  1
  Be  Be45  1  0.57756579  0.24171469  0.11564677  1
  Be  Be46  1  0.92995709  0.21894170  0.31174392  1
  Be  Be47  1  0.42995709  0.28105830  0.18825608  1
  Be  Be48  1  0.07004291  0.78105830  0.68825608  1
  Be  Be49  1  0.57004291  0.71894170  0.81174392  1
  Be  Be50  1  0.97523488  0.25736455  0.75632852  1
  Be  Be51  1  0.47523488  0.24263545  0.74367148  1
  Be  Be52  1  0.02476512  0.74263545  0.24367148  1
  Be  Be53  1  0.52476512  0.75736455  0.25632852  1
  B  B54  1  0.78196316  0.88610887  0.99123925  1
  B  B55  1  0.28196316  0.61389113  0.50876075  1
  B  B56  1  0.21803684  0.11389113  0.00876075  1
  B  B57  1  0.71803684  0.38610887  0.49123925  1
