# generated using pymatgen
data_HHe7Li2Be
_symmetry_space_group_name_H-M   'P 1'
_cell_length_a   5.43120464
_cell_length_b   7.16499531
_cell_length_c   8.79742526
_cell_angle_alpha   69.60559218
_cell_angle_beta   90.00000000
_cell_angle_gamma   90.00000000
_symmetry_Int_Tables_number   1
_chemical_formula_structural   HHe7Li2Be
_chemical_formula_sum   'H2 He14 Li4 Be2'
_cell_volume   320.88816256
_cell_formula_units_Z   2
loop_
 _symmetry_equiv_pos_site_id
 _symmetry_equiv_pos_as_xyz
  1  'x, y, z'
loop_
 _atom_site_type_symbol
 _atom_site_label
 _atom_site_symmetry_multiplicity
 _atom_site_fract_x
 _atom_site_fract_y
 _atom_site_fract_z
 _atom_site_occupancy
  H  H0  1  0.98915324  0.16793395  0.94409202  1
  H  H1  1  0.48915324  0.83206605  0.05590798  1
  He  He2  1  0.19542446  0.49521420  0.80967346  1
  He  He3  1  0.69542446  0.50478580  0.19032654  1
  He  He4  1  0.54612623  0.28360711  0.97206508  1
  He  He5  1  0.04612623  0.71639289  0.02793492  1
  He  He6  1  0.53111126  0.12980154  0.51143233  1
  He  He7  1  0.03111126  0.87019846  0.48856767  1
  He  He8  1  0.51789680  0.35718269  0.67005385  1
  He  He9  1  0.01789680  0.64281731  0.32994615  1
  He  He10  1  0.73523958  0.02557591  0.78920152  1
  He  He11  1  0.23523958  0.97442409  0.21079848  1
  He  He12  1  0.63261659  0.63270799  0.77157837  1
  He  He13  1  0.13261659  0.36729201  0.22842163  1
  He  He14  1  0.27279452  0.03048090  0.77095758  1
  He  He15  1  0.77279452  0.96951910  0.22904242  1
  Li  Li16  1  0.47144447  0.44783089  0.81338061  1
  Li  Li17  1  0.97144447  0.55216911  0.18661939  1
  Li  Li18  1  0.51167374  0.12545327  0.68459455  1
  Li  Li19  1  0.01167374  0.87454673  0.31540545  1
  Be  Be20  1  0.99421911  0.79207428  0.75242394  1
  Be  Be21  1  0.49421911  0.20792572  0.24757606  1
