# generated using pymatgen
data_H17He2
_symmetry_space_group_name_H-M   'P 1'
_cell_length_a   6.73317664
_cell_length_b   6.73317664
_cell_length_c   6.73317664
_cell_angle_alpha   82.23747098
_cell_angle_beta   82.23747098
_cell_angle_gamma   82.23747098
_symmetry_Int_Tables_number   1
_chemical_formula_structural   H17He2
_chemical_formula_sum   'H17 He2'
_cell_volume   297.55494083
_cell_formula_units_Z   1
loop_
 _symmetry_equiv_pos_site_id
 _symmetry_equiv_pos_as_xyz
  1  'x, y, z'
loop_
 _atom_site_type_symbol
 _atom_site_label
 _atom_site_symmetry_multiplicity
 _atom_site_fract_x
 _atom_site_fract_y
 _atom_site_fract_z
 _atom_site_occupancy
  H  H0  1  0.00000000  0.00000000  0.50000000  1
  H  H1  1  0.00000000  0.50000000  -0.00000000  1
  H  H2  1  0.50000000  -0.00000000  0.00000000  1
  H  H3  1  0.29178347  0.70821653  -0.00000000  1
  H  H4  1  0.70821653  0.00000000  0.29178347  1
  H  H5  1  -0.00000000  0.29178347  0.70821653  1
  H  H6  1  0.70821653  0.29178347  0.00000000  1
  H  H7  1  0.29178347  -0.00000000  0.70821653  1
  H  H8  1  0.00000000  0.70821653  0.29178347  1
  H  H9  1  0.34665573  0.34665573  0.84211803  1
  H  H10  1  0.34665573  0.84211803  0.34665573  1
  H  H11  1  0.84211803  0.34665573  0.34665573  1
  H  H12  1  0.65334427  0.15788197  0.65334427  1
  H  H13  1  0.65334427  0.65334427  0.15788197  1
  H  H14  1  0.15788197  0.65334427  0.65334427  1
  H  H15  1  0.90083127  0.90083127  0.90083127  1
  H  H16  1  0.09916873  0.09916873  0.09916873  1
  He  He17  1  0.65991882  0.65991882  0.65991882  1
  He  He18  1  0.34008118  0.34008118  0.34008118  1
