# generated using pymatgen
data_H3He4
_symmetry_space_group_name_H-M   'P 1'
_cell_length_a   8.29953738
_cell_length_b   8.29953451
_cell_length_c   6.00529287
_cell_angle_alpha   89.99994225
_cell_angle_beta   89.99991326
_cell_angle_gamma   120.00044740
_symmetry_Int_Tables_number   1
_chemical_formula_structural   H3He4
_chemical_formula_sum   'H12 He16'
_cell_volume   358.23703854
_cell_formula_units_Z   4
loop_
 _symmetry_equiv_pos_site_id
 _symmetry_equiv_pos_as_xyz
  1  'x, y, z'
loop_
 _atom_site_type_symbol
 _atom_site_label
 _atom_site_symmetry_multiplicity
 _atom_site_fract_x
 _atom_site_fract_y
 _atom_site_fract_z
 _atom_site_occupancy
  H  H0  1  0.51070324  0.08220064  0.22708885  1
  H  H1  1  0.91779925  0.42850567  0.22708817  1
  H  H2  1  0.57149938  0.48929513  0.22709070  1
  H  H3  1  0.08220066  0.51070322  0.72708887  1
  H  H4  1  0.42850567  0.91779922  0.72708821  1
  H  H5  1  0.48929513  0.57149941  0.72709073  1
  H  H6  1  0.16806274  0.25351109  0.02371520  1
  H  H7  1  0.74649151  0.91455293  0.02371683  1
  H  H8  1  0.08544745  0.83193653  0.02371464  1
  H  H9  1  0.25351099  0.16806269  0.52371514  1
  H  H10  1  0.91455296  0.74649160  0.52371683  1
  H  H11  1  0.83193657  0.08544740  0.52371463  1
  He  He12  1  0.00000077  0.99999838  0.02225700  1
  He  He13  1  0.99999838  0.00000079  0.52225697  1
  He  He14  1  0.33333333  0.66666762  0.66591269  1
  He  He15  1  0.66666761  0.33333333  0.16591272  1
  He  He16  1  0.34314328  0.95642570  0.99858538  1
  He  He17  1  0.04357401  0.38671586  0.99858754  1
  He  He18  1  0.61328118  0.65685612  0.99858865  1
  He  He19  1  0.95642569  0.34314329  0.49858538  1
  He  He20  1  0.38671589  0.04357403  0.49858756  1
  He  He21  1  0.65685611  0.61328118  0.49858867  1
  He  He22  1  0.31977419  0.31854864  0.27121601  1
  He  He23  1  0.68144654  0.00122025  0.27121779  1
  He  He24  1  0.99877992  0.68022864  0.27122056  1
  He  He25  1  0.31854865  0.31977418  0.77121597  1
  He  He26  1  0.00122023  0.68144654  0.77121776  1
  He  He27  1  0.68022867  0.99877992  0.77122054  1
