# generated using pymatgen
data_H2HeLi
_symmetry_space_group_name_H-M   'P 1'
_cell_length_a   5.56399500
_cell_length_b   6.89884944
_cell_length_c   7.37136634
_cell_angle_alpha   90.00000000
_cell_angle_beta   90.00000000
_cell_angle_gamma   90.00000000
_symmetry_Int_Tables_number   1
_chemical_formula_structural   H2HeLi
_chemical_formula_sum   'H8 He4 Li4'
_cell_volume   282.95110435
_cell_formula_units_Z   4
loop_
 _symmetry_equiv_pos_site_id
 _symmetry_equiv_pos_as_xyz
  1  'x, y, z'
loop_
 _atom_site_type_symbol
 _atom_site_label
 _atom_site_symmetry_multiplicity
 _atom_site_fract_x
 _atom_site_fract_y
 _atom_site_fract_z
 _atom_site_occupancy
  H  H0  1  0.10298170  0.94781801  0.17134360  1
  H  H1  1  0.60298170  0.05218199  0.32865640  1
  H  H2  1  0.89701830  0.44781801  0.82865640  1
  H  H3  1  0.39701830  0.55218199  0.67134360  1
  H  H4  1  0.89701830  0.05218199  0.82865640  1
  H  H5  1  0.39701830  0.94781801  0.67134360  1
  H  H6  1  0.10298170  0.55218199  0.17134360  1
  H  H7  1  0.60298170  0.44781801  0.32865640  1
  He  He8  1  0.37175889  0.75000000  0.37505072  1
  He  He9  1  0.87175889  0.25000000  0.12494928  1
  He  He10  1  0.62824111  0.25000000  0.62494928  1
  He  He11  1  0.12824111  0.75000000  0.87505072  1
  Li  Li12  1  0.62802108  0.75000000  0.02126354  1
  Li  Li13  1  0.12802108  0.25000000  0.47873646  1
  Li  Li14  1  0.37197892  0.25000000  0.97873646  1
  Li  Li15  1  0.87197892  0.75000000  0.52126354  1
