# generated using pymatgen
data_HHeLi(BeB)4
_symmetry_space_group_name_H-M   'P 1'
_cell_length_a   6.21526698
_cell_length_b   6.21526698
_cell_length_c   5.75869982
_cell_angle_alpha   90.00000000
_cell_angle_beta   90.00000000
_cell_angle_gamma   90.00000000
_symmetry_Int_Tables_number   1
_chemical_formula_structural   HHeLi(BeB)4
_chemical_formula_sum   'H2 He2 Li2 Be8 B8'
_cell_volume   222.45594602
_cell_formula_units_Z   2
loop_
 _symmetry_equiv_pos_site_id
 _symmetry_equiv_pos_as_xyz
  1  'x, y, z'
loop_
 _atom_site_type_symbol
 _atom_site_label
 _atom_site_symmetry_multiplicity
 _atom_site_fract_x
 _atom_site_fract_y
 _atom_site_fract_z
 _atom_site_occupancy
  H  H0  1  0.00000000  -0.00000000  0.50000000  1
  H  H1  1  0.50000000  0.50000000  0.50000000  1
  He  He2  1  -0.00000000  0.50000000  0.15697959  1
  He  He3  1  0.50000000  -0.00000000  0.84302041  1
  Li  Li4  1  -0.00000000  0.50000000  0.61342584  1
  Li  Li5  1  0.50000000  -0.00000000  0.38657416  1
  Be  Be6  1  0.17826737  0.15764751  0.74649111  1
  Be  Be7  1  0.82173263  0.84235249  0.74649111  1
  Be  Be8  1  0.34235249  0.67826737  0.74649111  1
  Be  Be9  1  0.65764751  0.32173263  0.74649111  1
  Be  Be10  1  0.32173263  0.34235249  0.25350889  1
  Be  Be11  1  0.67826737  0.65764751  0.25350889  1
  Be  Be12  1  0.15764751  0.82173263  0.25350889  1
  Be  Be13  1  0.84235249  0.17826737  0.25350889  1
  B  B14  1  0.31517360  0.54731763  0.65323653  1
  B  B15  1  0.68482640  0.45268237  0.65323653  1
  B  B16  1  0.95268237  0.81517360  0.65323653  1
  B  B17  1  0.04731763  0.18482640  0.65323653  1
  B  B18  1  0.18482640  0.95268237  0.34676347  1
  B  B19  1  0.81517360  0.04731763  0.34676347  1
  B  B20  1  0.54731763  0.68482640  0.34676347  1
  B  B21  1  0.45268237  0.31517360  0.34676347  1
