# generated using pymatgen
data_H2
_symmetry_space_group_name_H-M   'P 1'
_cell_length_a   8.82668359
_cell_length_b   8.82668359
_cell_length_c   4.73115733
_cell_angle_alpha   90.00000000
_cell_angle_beta   90.00000000
_cell_angle_gamma   90.00000000
_symmetry_Int_Tables_number   1
_chemical_formula_structural   H2
_chemical_formula_sum   H28
_cell_volume   368.60609169
_cell_formula_units_Z   14
loop_
 _symmetry_equiv_pos_site_id
 _symmetry_equiv_pos_as_xyz
  1  'x, y, z'
loop_
 _atom_site_type_symbol
 _atom_site_label
 _atom_site_symmetry_multiplicity
 _atom_site_fract_x
 _atom_site_fract_y
 _atom_site_fract_z
 _atom_site_occupancy
  H  H0  1  0.39891892  0.39891892  -0.00000000  1
  H  H1  1  0.60108108  0.60108108  0.00000000  1
  H  H2  1  0.10108108  0.89891892  0.50000000  1
  H  H3  1  0.89891892  0.10108108  0.50000000  1
  H  H4  1  0.46202824  0.13579192  -0.00000000  1
  H  H5  1  0.53797176  0.86420808  0.00000000  1
  H  H6  1  0.36420808  0.96202824  0.50000000  1
  H  H7  1  0.63579192  0.03797176  0.50000000  1
  H  H8  1  0.03797176  0.63579192  0.50000000  1
  H  H9  1  0.96202824  0.36420808  0.50000000  1
  H  H10  1  0.13579192  0.46202824  -0.00000000  1
  H  H11  1  0.86420808  0.53797176  0.00000000  1
  H  H12  1  0.73936315  0.06216105  -0.00000000  1
  H  H13  1  0.26063685  0.93783895  0.00000000  1
  H  H14  1  0.43783895  0.23936315  0.50000000  1
  H  H15  1  0.56216105  0.76063685  0.50000000  1
  H  H16  1  0.76063685  0.56216105  0.50000000  1
  H  H17  1  0.23936315  0.43783895  0.50000000  1
  H  H18  1  0.06216105  0.73936315  -0.00000000  1
  H  H19  1  0.93783895  0.26063685  0.00000000  1
  H  H20  1  0.17883161  0.17883161  0.25183335  1
  H  H21  1  0.82116839  0.82116839  0.25183335  1
  H  H22  1  0.32116839  0.67883161  0.75183335  1
  H  H23  1  0.67883161  0.32116839  0.75183335  1
  H  H24  1  0.32116839  0.67883161  0.24816665  1
  H  H25  1  0.67883161  0.32116839  0.24816665  1
  H  H26  1  0.17883161  0.17883161  0.74816665  1
  H  H27  1  0.82116839  0.82116839  0.74816665  1
