# generated using pymatgen
data_HHeLi4Be
_symmetry_space_group_name_H-M   'P 1'
_cell_length_a   5.07911994
_cell_length_b   6.85677345
_cell_length_c   8.96856545
_cell_angle_alpha   90.00000000
_cell_angle_beta   90.00000000
_cell_angle_gamma   90.00000000
_symmetry_Int_Tables_number   1
_chemical_formula_structural   HHeLi4Be
_chemical_formula_sum   'H4 He4 Li16 Be4'
_cell_volume   312.34262081
_cell_formula_units_Z   4
loop_
 _symmetry_equiv_pos_site_id
 _symmetry_equiv_pos_as_xyz
  1  'x, y, z'
loop_
 _atom_site_type_symbol
 _atom_site_label
 _atom_site_symmetry_multiplicity
 _atom_site_fract_x
 _atom_site_fract_y
 _atom_site_fract_z
 _atom_site_occupancy
  H  H0  1  0.50000000  0.50000000  0.50000000  1
  H  H1  1  0.00000000  0.50000000  0.00000000  1
  H  H2  1  0.50000000  0.00000000  0.50000000  1
  H  H3  1  0.00000000  0.00000000  0.00000000  1
  He  He4  1  0.53111614  0.75000000  0.85199782  1
  He  He5  1  0.03111614  0.25000000  0.64800218  1
  He  He6  1  0.46888386  0.25000000  0.14800218  1
  He  He7  1  0.96888386  0.75000000  0.35199782  1
  Li  Li8  1  0.75060809  0.75000000  0.11746652  1
  Li  Li9  1  0.25060809  0.25000000  0.38253348  1
  Li  Li10  1  0.24939191  0.25000000  0.88253348  1
  Li  Li11  1  0.74939191  0.75000000  0.61746652  1
  Li  Li12  1  0.45086071  0.75000000  0.35339361  1
  Li  Li13  1  0.95086071  0.25000000  0.14660639  1
  Li  Li14  1  0.54913929  0.25000000  0.64660639  1
  Li  Li15  1  0.04913929  0.75000000  0.85339361  1
  Li  Li16  1  0.31689438  0.93435451  0.12300799  1
  Li  Li17  1  0.81689438  0.06564549  0.37699201  1
  Li  Li18  1  0.68310562  0.43435451  0.87699201  1
  Li  Li19  1  0.18310562  0.56564549  0.62300799  1
  Li  Li20  1  0.68310562  0.06564549  0.87699201  1
  Li  Li21  1  0.18310562  0.93435451  0.62300799  1
  Li  Li22  1  0.31689438  0.56564549  0.12300799  1
  Li  Li23  1  0.81689438  0.43435451  0.37699201  1
  Be  Be24  1  0.46219452  0.75000000  0.17743180  1
  Be  Be25  1  0.96219452  0.25000000  0.32256820  1
  Be  Be26  1  0.53780548  0.25000000  0.82256820  1
  Be  Be27  1  0.03780548  0.75000000  0.67743180  1
