# generated using pymatgen
data_H2He2Li2Be7
_symmetry_space_group_name_H-M   'P 1'
_cell_length_a   8.88377050
_cell_length_b   8.88404219
_cell_length_c   8.85950760
_cell_angle_alpha   89.99631329
_cell_angle_beta   90.00194275
_cell_angle_gamma   120.00042205
_symmetry_Int_Tables_number   1
_chemical_formula_structural   H2He2Li2Be7
_chemical_formula_sum   'H6 He6 Li6 Be21'
_cell_volume   605.54484544
_cell_formula_units_Z   3
loop_
 _symmetry_equiv_pos_site_id
 _symmetry_equiv_pos_as_xyz
  1  'x, y, z'
loop_
 _atom_site_type_symbol
 _atom_site_label
 _atom_site_symmetry_multiplicity
 _atom_site_fract_x
 _atom_site_fract_y
 _atom_site_fract_z
 _atom_site_occupancy
  H  H0  1  0.33574826  0.33428683  0.74111900  1
  H  H1  1  0.66586740  0.00160168  0.74117828  1
  H  H2  1  0.99854206  0.66440292  0.74115625  1
  H  H3  1  0.00153410  0.66579571  0.25885943  1
  H  H4  1  0.66431666  0.99844719  0.25883116  1
  H  H5  1  0.33418733  0.33565560  0.25885166  1
  He  He6  1  0.00003252  0.00008734  0.70957042  1
  He  He7  1  0.99998351  0.99994786  0.29040407  1
  He  He8  1  0.33336727  0.66673503  0.80982793  1
  He  He9  1  0.66668757  0.33331902  0.19018042  1
  He  He10  1  0.66670839  0.33341979  0.76899670  1
  He  He11  1  0.33333073  0.66661565  0.23100279  1
  Li  Li12  1  0.00000209  0.31900320  0.99999365  1
  Li  Li13  1  0.68101799  0.68102555  0.99999529  1
  Li  Li14  1  0.31904058  0.00001389  0.00002463  1
  Li  Li15  1  0.00004045  0.35224222  0.50001371  1
  Li  Li16  1  0.64780696  0.64778657  0.49999434  1
  Li  Li17  1  0.35221477  0.00003892  0.50001043  1
  Be  Be18  1  0.99999511  0.00001273  0.49998806  1
  Be  Be19  1  0.66670299  0.33338800  0.97955511  1
  Be  Be20  1  0.33331922  0.66663153  0.02044820  1
  Be  Be21  1  0.73723561  0.17487495  0.69997735  1
  Be  Be22  1  0.82529340  0.56252597  0.70003132  1
  Be  Be23  1  0.43763412  0.26292467  0.69997307  1
  Be  Be24  1  0.56240770  0.82517240  0.30002566  1
  Be  Be25  1  0.26282291  0.43752225  0.29998840  1
  Be  Be26  1  0.17479821  0.73715684  0.30004342  1
  Be  Be27  1  0.40972300  0.51334920  0.74135431  1
  Be  Be28  1  0.48682576  0.89650982  0.74144031  1
  Be  Be29  1  0.10363363  0.59046384  0.74134398  1
  Be  Be30  1  0.89643558  0.48674241  0.25862418  1
  Be  Be31  1  0.59037592  0.10354399  0.25859936  1
  Be  Be32  1  0.51322494  0.40959011  0.25865890  1
  Be  Be33  1  0.06460797  0.83710426  0.78101417  1
  Be  Be34  1  0.16306022  0.22766441  0.78093397  1
  Be  Be35  1  0.77250140  0.93556650  0.78101626  1
  Be  Be36  1  0.22754582  0.16294868  0.21898382  1
  Be  Be37  1  0.93545528  0.77240292  0.21901773  1
  Be  Be38  1  0.83697259  0.06447957  0.21897225  1
