# generated using pymatgen
data_HHe2Li3
_symmetry_space_group_name_H-M   'P 1'
_cell_length_a   5.26248342
_cell_length_b   5.26248342
_cell_length_c   6.34148017
_cell_angle_alpha   90.00000000
_cell_angle_beta   90.00000000
_cell_angle_gamma   119.98894500
_symmetry_Int_Tables_number   1
_chemical_formula_structural   HHe2Li3
_chemical_formula_sum   'H2 He4 Li6'
_cell_volume   152.10767213
_cell_formula_units_Z   2
loop_
 _symmetry_equiv_pos_site_id
 _symmetry_equiv_pos_as_xyz
  1  'x, y, z'
loop_
 _atom_site_type_symbol
 _atom_site_label
 _atom_site_symmetry_multiplicity
 _atom_site_fract_x
 _atom_site_fract_y
 _atom_site_fract_z
 _atom_site_occupancy
  H  H0  1  0.66669811  0.33330189  0.25000000  1
  H  H1  1  0.33330189  0.66669811  0.75000000  1
  He  He2  1  0.00000000  -0.00000000  -0.00000000  1
  He  He3  1  0.00000000  0.00000000  0.50000000  1
  He  He4  1  0.66663465  0.33336535  0.75000000  1
  He  He5  1  0.33336535  0.66663465  0.25000000  1
  Li  Li6  1  0.80922087  0.19077913  0.25000000  1
  Li  Li7  1  0.80932711  0.61858468  0.25000000  1
  Li  Li8  1  0.38141532  0.19067289  0.25000000  1
  Li  Li9  1  0.19077913  0.80922087  0.75000000  1
  Li  Li10  1  0.19067289  0.38141532  0.75000000  1
  Li  Li11  1  0.61858468  0.80932711  0.75000000  1
