# generated using pymatgen
data_H2HeLi4
_symmetry_space_group_name_H-M   'P 1'
_cell_length_a   4.08663080
_cell_length_b   12.16889849
_cell_length_c   14.79088655
_cell_angle_alpha   90.00000000
_cell_angle_beta   90.00000000
_cell_angle_gamma   90.00000000
_symmetry_Int_Tables_number   1
_chemical_formula_structural   H2HeLi4
_chemical_formula_sum   'H8 He4 Li16'
_cell_volume   735.54776111
_cell_formula_units_Z   4
loop_
 _symmetry_equiv_pos_site_id
 _symmetry_equiv_pos_as_xyz
  1  'x, y, z'
loop_
 _atom_site_type_symbol
 _atom_site_label
 _atom_site_symmetry_multiplicity
 _atom_site_fract_x
 _atom_site_fract_y
 _atom_site_fract_z
 _atom_site_occupancy
  H  H0  1  0.25000000  0.07270028  0.60499065  1
  H  H1  1  0.75000000  0.42729972  0.10499065  1
  H  H2  1  0.75000000  0.92729972  0.39500935  1
  H  H3  1  0.25000000  0.57270028  0.89500935  1
  H  H4  1  0.25000000  0.08223763  0.10698094  1
  H  H5  1  0.75000000  0.41776237  0.60698094  1
  H  H6  1  0.75000000  0.91776237  0.89301906  1
  H  H7  1  0.25000000  0.58223763  0.39301906  1
  He  He8  1  0.25000000  0.23394445  0.34208339  1
  He  He9  1  0.75000000  0.26605555  0.84208339  1
  He  He10  1  0.75000000  0.76605555  0.65791661  1
  He  He11  1  0.25000000  0.73394445  0.15791661  1
  Li  Li12  1  0.25000000  0.35524823  0.98087970  1
  Li  Li13  1  0.75000000  0.14475177  0.48087970  1
  Li  Li14  1  0.75000000  0.64475177  0.01912030  1
  Li  Li15  1  0.25000000  0.85524823  0.51912030  1
  Li  Li16  1  0.25000000  0.27139712  0.69578455  1
  Li  Li17  1  0.75000000  0.22860288  0.19578455  1
  Li  Li18  1  0.75000000  0.72860288  0.30421545  1
  Li  Li19  1  0.25000000  0.77139712  0.80421545  1
  Li  Li20  1  0.25000000  0.06681754  0.91204055  1
  Li  Li21  1  0.75000000  0.43318246  0.41204055  1
  Li  Li22  1  0.75000000  0.93318246  0.08795945  1
  Li  Li23  1  0.25000000  0.56681754  0.58795945  1
  Li  Li24  1  0.25000000  0.00983467  0.28707250  1
  Li  Li25  1  0.75000000  0.49016533  0.78707250  1
  Li  Li26  1  0.75000000  0.99016533  0.71292750  1
  Li  Li27  1  0.25000000  0.50983467  0.21292750  1
