# generated using pymatgen
data_H3He2
_symmetry_space_group_name_H-M   'P 1'
_cell_length_a   7.75374743
_cell_length_b   7.75374743
_cell_length_c   3.91338062
_cell_angle_alpha   90.00000000
_cell_angle_beta   90.00000000
_cell_angle_gamma   90.00000000
_symmetry_Int_Tables_number   1
_chemical_formula_structural   H3He2
_chemical_formula_sum   'H6 He4'
_cell_volume   235.27478779
_cell_formula_units_Z   2
loop_
 _symmetry_equiv_pos_site_id
 _symmetry_equiv_pos_as_xyz
  1  'x, y, z'
loop_
 _atom_site_type_symbol
 _atom_site_label
 _atom_site_symmetry_multiplicity
 _atom_site_fract_x
 _atom_site_fract_y
 _atom_site_fract_z
 _atom_site_occupancy
  H  H0  1  0.00000000  0.00000000  0.00000000  1
  H  H1  1  0.50000000  0.50000000  0.00000000  1
  H  H2  1  0.16624618  0.66624618  0.50000000  1
  H  H3  1  0.83375382  0.33375382  0.50000000  1
  H  H4  1  0.33375382  0.16624618  0.50000000  1
  H  H5  1  0.66624618  0.83375382  0.50000000  1
  He  He6  1  0.36749974  0.86749974  -0.00000000  1
  He  He7  1  0.63250026  0.13250026  0.00000000  1
  He  He8  1  0.13250026  0.36749974  -0.00000000  1
  He  He9  1  0.86749974  0.63250026  0.00000000  1
