# generated using pymatgen
data_HHeLi
_symmetry_space_group_name_H-M   'P 1'
_cell_length_a   4.67114229
_cell_length_b   7.23431420
_cell_length_c   8.00164078
_cell_angle_alpha   90.00000000
_cell_angle_beta   90.00000000
_cell_angle_gamma   90.00000000
_symmetry_Int_Tables_number   1
_chemical_formula_structural   HHeLi
_chemical_formula_sum   'H4 He4 Li4'
_cell_volume   270.39553422
_cell_formula_units_Z   4
loop_
 _symmetry_equiv_pos_site_id
 _symmetry_equiv_pos_as_xyz
  1  'x, y, z'
loop_
 _atom_site_type_symbol
 _atom_site_label
 _atom_site_symmetry_multiplicity
 _atom_site_fract_x
 _atom_site_fract_y
 _atom_site_fract_z
 _atom_site_occupancy
  H  H0  1  0.25000000  0.99043012  0.29304204  1
  H  H1  1  0.75000000  0.50956988  0.79304204  1
  H  H2  1  0.75000000  0.00956988  0.70695796  1
  H  H3  1  0.25000000  0.49043012  0.20695796  1
  He  He4  1  0.25000000  0.20638015  0.91672186  1
  He  He5  1  0.75000000  0.29361985  0.41672186  1
  He  He6  1  0.75000000  0.79361985  0.08327814  1
  He  He7  1  0.25000000  0.70638015  0.58327814  1
  Li  Li8  1  0.25000000  0.30373649  0.58756857  1
  Li  Li9  1  0.75000000  0.19626351  0.08756857  1
  Li  Li10  1  0.75000000  0.69626351  0.41243143  1
  Li  Li11  1  0.25000000  0.80373649  0.91243143  1
