# generated using pymatgen
data_H16He6Li7
_symmetry_space_group_name_H-M   'P 1'
_cell_length_a   8.07225692
_cell_length_b   8.07225692
_cell_length_c   8.07225692
_cell_angle_alpha   60.00000000
_cell_angle_beta   60.00000000
_cell_angle_gamma   60.00000000
_symmetry_Int_Tables_number   1
_chemical_formula_structural   H16He6Li7
_chemical_formula_sum   'H16 He6 Li7'
_cell_volume   371.93746788
_cell_formula_units_Z   1
loop_
 _symmetry_equiv_pos_site_id
 _symmetry_equiv_pos_as_xyz
  1  'x, y, z'
loop_
 _atom_site_type_symbol
 _atom_site_label
 _atom_site_symmetry_multiplicity
 _atom_site_fract_x
 _atom_site_fract_y
 _atom_site_fract_z
 _atom_site_occupancy
  H  H0  1  0.83083692  0.50748923  0.83083692  1
  H  H1  1  0.83083692  0.83083692  0.83083692  1
  H  H2  1  0.50748923  0.83083692  0.83083692  1
  H  H3  1  0.83083692  0.83083692  0.50748923  1
  H  H4  1  0.16916308  0.16916308  0.16916308  1
  H  H5  1  0.16916308  0.49251077  0.16916308  1
  H  H6  1  0.49251077  0.16916308  0.16916308  1
  H  H7  1  0.16916308  0.16916308  0.49251077  1
  H  H8  1  0.61919264  0.14242209  0.61919264  1
  H  H9  1  0.61919264  0.61919264  0.61919264  1
  H  H10  1  0.14242209  0.61919264  0.61919264  1
  H  H11  1  0.61919264  0.61919264  0.14242209  1
  H  H12  1  0.38080736  0.38080736  0.38080736  1
  H  H13  1  0.38080736  0.85757791  0.38080736  1
  H  H14  1  0.85757791  0.38080736  0.38080736  1
  H  H15  1  0.38080736  0.38080736  0.85757791  1
  He  He16  1  0.78963860  0.21036140  0.21036140  1
  He  He17  1  0.21036140  0.78963860  0.78963860  1
  He  He18  1  0.21036140  0.21036140  0.78963860  1
  He  He19  1  0.78963860  0.78963860  0.21036140  1
  He  He20  1  0.78963860  0.21036140  0.78963860  1
  He  He21  1  0.21036140  0.78963860  0.21036140  1
  Li  Li22  1  0.00000000  0.50000000  0.50000000  1
  Li  Li23  1  0.50000000  0.00000000  -0.00000000  1
  Li  Li24  1  0.50000000  0.50000000  -0.00000000  1
  Li  Li25  1  -0.00000000  -0.00000000  0.50000000  1
  Li  Li26  1  -0.00000000  0.50000000  0.00000000  1
  Li  Li27  1  0.50000000  0.00000000  0.50000000  1
  Li  Li28  1  0.50000000  0.50000000  0.50000000  1
