# generated using pymatgen
data_H2He4Li
_symmetry_space_group_name_H-M   'P 1'
_cell_length_a   5.50367262
_cell_length_b   5.79609870
_cell_length_c   11.63321358
_cell_angle_alpha   90.00000000
_cell_angle_beta   90.00000000
_cell_angle_gamma   90.00000000
_symmetry_Int_Tables_number   1
_chemical_formula_structural   H2He4Li
_chemical_formula_sum   'H8 He16 Li4'
_cell_volume   371.09753218
_cell_formula_units_Z   4
loop_
 _symmetry_equiv_pos_site_id
 _symmetry_equiv_pos_as_xyz
  1  'x, y, z'
loop_
 _atom_site_type_symbol
 _atom_site_label
 _atom_site_symmetry_multiplicity
 _atom_site_fract_x
 _atom_site_fract_y
 _atom_site_fract_z
 _atom_site_occupancy
  H  H0  1  0.00315455  0.06777872  0.35304859  1
  H  H1  1  0.49684545  0.93222128  0.85304859  1
  H  H2  1  0.99684545  0.56777872  0.14695141  1
  H  H3  1  0.50315455  0.43222128  0.64695141  1
  H  H4  1  0.99684545  0.93222128  0.64695141  1
  H  H5  1  0.50315455  0.06777872  0.14695141  1
  H  H6  1  0.00315455  0.43222128  0.85304859  1
  H  H7  1  0.49684545  0.56777872  0.35304859  1
  He  He8  1  0.19271786  0.30238606  0.03401073  1
  He  He9  1  0.30728214  0.69761394  0.53401073  1
  He  He10  1  0.80728214  0.80238606  0.46598927  1
  He  He11  1  0.69271786  0.19761394  0.96598927  1
  He  He12  1  0.80728214  0.69761394  0.96598927  1
  He  He13  1  0.69271786  0.30238606  0.46598927  1
  He  He14  1  0.19271786  0.19761394  0.53401073  1
  He  He15  1  0.30728214  0.80238606  0.03401073  1
  He  He16  1  0.91537516  0.97269013  0.16461509  1
  He  He17  1  0.58462484  0.02730987  0.66461509  1
  He  He18  1  0.08462484  0.47269013  0.33538491  1
  He  He19  1  0.41537516  0.52730987  0.83538491  1
  He  He20  1  0.08462484  0.02730987  0.83538491  1
  He  He21  1  0.41537516  0.97269013  0.33538491  1
  He  He22  1  0.91537516  0.52730987  0.66461509  1
  He  He23  1  0.58462484  0.47269013  0.16461509  1
  Li  Li24  1  0.00000000  0.00000000  0.00000000  1
  Li  Li25  1  0.50000000  0.00000000  0.50000000  1
  Li  Li26  1  0.00000000  0.50000000  0.50000000  1
  Li  Li27  1  0.50000000  0.50000000  0.00000000  1
