# generated using pymatgen
data_H2He3
_symmetry_space_group_name_H-M   'P 1'
_cell_length_a   9.13368667
_cell_length_b   9.13368667
_cell_length_c   9.13368667
_cell_angle_alpha   109.47122063
_cell_angle_beta   109.47122063
_cell_angle_gamma   109.47122063
_symmetry_Int_Tables_number   1
_chemical_formula_structural   H2He3
_chemical_formula_sum   'H16 He24'
_cell_volume   586.56539284
_cell_formula_units_Z   8
loop_
 _symmetry_equiv_pos_site_id
 _symmetry_equiv_pos_as_xyz
  1  'x, y, z'
loop_
 _atom_site_type_symbol
 _atom_site_label
 _atom_site_symmetry_multiplicity
 _atom_site_fract_x
 _atom_site_fract_y
 _atom_site_fract_z
 _atom_site_occupancy
  H  H0  1  0.50000000  -0.00000000  0.00000000  1
  H  H1  1  0.50000000  0.50000000  0.50000000  1
  H  H2  1  0.00000000  0.50000000  0.00000000  1
  H  H3  1  0.00000000  -0.00000000  0.50000000  1
  H  H4  1  0.75000000  0.71699614  0.96699614  1
  H  H5  1  0.25000000  0.78300386  0.53300386  1
  H  H6  1  0.03300386  0.25000000  0.28300386  1
  H  H7  1  0.46699614  0.75000000  0.21699614  1
  H  H8  1  0.78300386  0.03300386  0.75000000  1
  H  H9  1  0.71699614  0.46699614  0.25000000  1
  H  H10  1  0.25000000  0.28300386  0.03300386  1
  H  H11  1  0.75000000  0.21699614  0.46699614  1
  H  H12  1  0.96699614  0.75000000  0.71699614  1
  H  H13  1  0.53300386  0.25000000  0.78300386  1
  H  H14  1  0.21699614  0.96699614  0.25000000  1
  H  H15  1  0.28300386  0.53300386  0.75000000  1
  He  He16  1  0.46826249  0.01126612  0.23922762  1
  He  He17  1  0.27203850  0.22903487  0.26077238  1
  He  He18  1  0.22796150  0.48873388  0.95699636  1
  He  He19  1  0.03173751  0.27096513  0.54300364  1
  He  He20  1  0.45699636  0.22796150  0.98873388  1
  He  He21  1  0.04300364  0.03173751  0.77096513  1
  He  He22  1  0.73922762  0.46826249  0.51126612  1
  He  He23  1  0.76077238  0.27203850  0.72903487  1
  He  He24  1  0.22903487  0.76077238  0.77203850  1
  He  He25  1  0.01126612  0.73922762  0.96826249  1
  He  He26  1  0.27096513  0.04300364  0.53173751  1
  He  He27  1  0.48873388  0.45699636  0.72796150  1
  He  He28  1  0.53173751  0.98873388  0.76077238  1
  He  He29  1  0.72796150  0.77096513  0.73922762  1
  He  He30  1  0.77203850  0.51126612  0.04300364  1
  He  He31  1  0.96826249  0.72903487  0.45699636  1
  He  He32  1  0.54300364  0.77203850  0.01126612  1
  He  He33  1  0.95699636  0.96826249  0.22903487  1
  He  He34  1  0.26077238  0.53173751  0.48873388  1
  He  He35  1  0.23922762  0.72796150  0.27096513  1
  He  He36  1  0.77096513  0.23922762  0.22796150  1
  He  He37  1  0.98873388  0.26077238  0.03173751  1
  He  He38  1  0.72903487  0.95699636  0.46826249  1
  He  He39  1  0.51126612  0.54300364  0.27203850  1
