# generated using pymatgen
data_H2HeLi3
_symmetry_space_group_name_H-M   'P 1'
_cell_length_a   5.00258943
_cell_length_b   5.00266683
_cell_length_c   9.73249417
_cell_angle_alpha   85.22457115
_cell_angle_beta   85.23354013
_cell_angle_gamma   119.90696463
_symmetry_Int_Tables_number   1
_chemical_formula_structural   H2HeLi3
_chemical_formula_sum   'H8 He4 Li12'
_cell_volume   208.20043901
_cell_formula_units_Z   4
loop_
 _symmetry_equiv_pos_site_id
 _symmetry_equiv_pos_as_xyz
  1  'x, y, z'
loop_
 _atom_site_type_symbol
 _atom_site_label
 _atom_site_symmetry_multiplicity
 _atom_site_fract_x
 _atom_site_fract_y
 _atom_site_fract_z
 _atom_site_occupancy
  H  H0  1  0.83981569  0.66147472  0.99960561  1
  H  H1  1  0.33838473  0.16003317  0.50052703  1
  H  H2  1  0.16008192  0.33843456  0.00049395  1
  H  H3  1  0.66156328  0.83990571  0.49957642  1
  H  H4  1  0.00000624  0.50001366  0.50005481  1
  H  H5  1  0.49996645  0.99995693  0.00003511  1
  H  H6  1  0.74981098  0.25019227  0.25007511  1
  H  H7  1  0.25017422  0.74979526  0.75007694  1
  He  He8  1  0.41712399  0.58290298  0.25003819  1
  He  He9  1  0.58289283  0.41711428  0.75004274  1
  He  He10  1  0.08304639  0.91701128  0.25002789  1
  He  He11  1  0.91698050  0.08301536  0.75004418  1
  Li  Li12  1  0.14494833  0.64485815  0.13611725  1
  Li  Li13  1  0.35517404  0.85504805  0.36394820  1
  Li  Li14  1  0.85506090  0.35514289  0.86394923  1
  Li  Li15  1  0.64481404  0.14494772  0.63612626  1
  Li  Li16  1  0.42939697  0.28650553  0.13810870  1
  Li  Li17  1  0.71358301  0.57066304  0.36195415  1
  Li  Li18  1  0.57064577  0.71353015  0.86195098  1
  Li  Li19  1  0.28645263  0.42940079  0.63811638  1
  Li  Li20  1  0.78661734  0.92930783  0.13805278  1
  Li  Li21  1  0.07076711  0.21338842  0.36200301  1
  Li  Li22  1  0.21340511  0.07072430  0.86200657  1
  Li  Li23  1  0.92928751  0.78663294  0.63806852  1
