# generated using pymatgen
data_H3He3(Li4Be)4
_symmetry_space_group_name_H-M   'P 1'
_cell_length_a   10.37848249
_cell_length_b   10.37848249
_cell_length_c   10.56320593
_cell_angle_alpha   88.18988258
_cell_angle_beta   88.18988258
_cell_angle_gamma   36.35802911
_symmetry_Int_Tables_number   1
_chemical_formula_structural   H3He3(Li4Be)4
_chemical_formula_sum   'H6 He6 Li32 Be8'
_cell_volume   674.14424576
_cell_formula_units_Z   2
loop_
 _symmetry_equiv_pos_site_id
 _symmetry_equiv_pos_as_xyz
  1  'x, y, z'
loop_
 _atom_site_type_symbol
 _atom_site_label
 _atom_site_symmetry_multiplicity
 _atom_site_fract_x
 _atom_site_fract_y
 _atom_site_fract_z
 _atom_site_occupancy
  H  H0  1  0.50000000  -0.00000000  0.50000000  1
  H  H1  1  0.00000000  0.50000000  0.00000000  1
  H  H2  1  0.63546346  0.67956863  0.25252921  1
  H  H3  1  0.32043137  0.36453654  0.24747079  1
  H  H4  1  0.36453654  0.32043137  0.74747079  1
  H  H5  1  0.67956863  0.63546346  0.75252921  1
  He  He6  1  0.37022293  0.62977707  0.75000000  1
  He  He7  1  0.62977707  0.37022293  0.25000000  1
  He  He8  1  0.22475861  0.94245870  0.02537270  1
  He  He9  1  0.05754130  0.77524139  0.47462730  1
  He  He10  1  0.77524139  0.05754130  0.97462730  1
  He  He11  1  0.94245870  0.22475861  0.52537270  1
  Li  Li12  1  0.99100019  0.32354795  0.72240471  1
  Li  Li13  1  0.67645205  0.00899981  0.77759529  1
  Li  Li14  1  0.00899981  0.67645205  0.27759529  1
  Li  Li15  1  0.32354795  0.99100019  0.22240471  1
  Li  Li16  1  0.31457931  0.19674304  0.64280348  1
  Li  Li17  1  0.80325696  0.68542069  0.85719652  1
  Li  Li18  1  0.68542069  0.80325696  0.35719652  1
  Li  Li19  1  0.19674304  0.31457931  0.14280348  1
  Li  Li20  1  0.36480605  0.94972918  0.78963521  1
  Li  Li21  1  0.05027082  0.63519395  0.71036479  1
  Li  Li22  1  0.63519395  0.05027082  0.21036479  1
  Li  Li23  1  0.94972918  0.36480605  0.28963521  1
  Li  Li24  1  0.22793929  0.28013330  0.86287921  1
  Li  Li25  1  0.71986670  0.77206071  0.63712079  1
  Li  Li26  1  0.77206071  0.71986670  0.13712079  1
  Li  Li27  1  0.28013330  0.22793929  0.36287921  1
  Li  Li28  1  0.37244558  0.45837370  0.11791307  1
  Li  Li29  1  0.54162630  0.62755442  0.38208693  1
  Li  Li30  1  0.62755442  0.54162630  0.88208693  1
  Li  Li31  1  0.45837370  0.37244558  0.61791307  1
  Li  Li32  1  0.41373000  0.39598470  0.88566905  1
  Li  Li33  1  0.60401530  0.58627000  0.61433095  1
  Li  Li34  1  0.58627000  0.60401530  0.11433095  1
  Li  Li35  1  0.39598470  0.41373000  0.38566905  1
  Li  Li36  1  0.17548970  0.76893362  0.95935560  1
  Li  Li37  1  0.23106638  0.82451030  0.54064440  1
  Li  Li38  1  0.82451030  0.23106638  0.04064440  1
  Li  Li39  1  0.76893362  0.17548970  0.45935560  1
  Li  Li40  1  0.04518804  0.64735704  0.99364667  1
  Li  Li41  1  0.35264296  0.95481196  0.50635333  1
  Li  Li42  1  0.95481196  0.35264296  0.00635333  1
  Li  Li43  1  0.64735704  0.04518804  0.49364667  1
  Be  Be44  1  0.22015773  0.18197123  0.75602187  1
  Be  Be45  1  0.81802877  0.77984227  0.74397813  1
  Be  Be46  1  0.77984227  0.81802877  0.24397813  1
  Be  Be47  1  0.18197123  0.22015773  0.25602187  1
  Be  Be48  1  0.24904558  0.57294823  0.99014500  1
  Be  Be49  1  0.42705177  0.75095442  0.50985500  1
  Be  Be50  1  0.75095442  0.42705177  0.00985500  1
  Be  Be51  1  0.57294823  0.24904558  0.49014500  1
