# generated using pymatgen
data_H3He
_symmetry_space_group_name_H-M   'P 1'
_cell_length_a   6.69323966
_cell_length_b   7.59379663
_cell_length_c   10.11770169
_cell_angle_alpha   90.00000000
_cell_angle_beta   90.00000000
_cell_angle_gamma   90.00000000
_symmetry_Int_Tables_number   1
_chemical_formula_structural   H3He
_chemical_formula_sum   'H12 He4'
_cell_volume   514.25344354
_cell_formula_units_Z   4
loop_
 _symmetry_equiv_pos_site_id
 _symmetry_equiv_pos_as_xyz
  1  'x, y, z'
loop_
 _atom_site_type_symbol
 _atom_site_label
 _atom_site_symmetry_multiplicity
 _atom_site_fract_x
 _atom_site_fract_y
 _atom_site_fract_z
 _atom_site_occupancy
  H  H0  1  0.82732254  0.17259382  0.93034069  1
  H  H1  1  0.32732254  0.32740618  0.06965931  1
  H  H2  1  0.17267746  0.82740618  0.43034069  1
  H  H3  1  0.67267746  0.67259382  0.56965931  1
  H  H4  1  0.17267746  0.82740618  0.06965931  1
  H  H5  1  0.67267746  0.67259382  0.93034069  1
  H  H6  1  0.82732254  0.17259382  0.56965931  1
  H  H7  1  0.32732254  0.32740618  0.43034069  1
  H  H8  1  0.35131236  0.04427429  0.75000000  1
  H  H9  1  0.85131236  0.45572571  0.25000000  1
  H  H10  1  0.64868764  0.95572571  0.25000000  1
  H  H11  1  0.14868764  0.54427429  0.75000000  1
  He  He12  1  0.55549531  0.38382418  0.75000000  1
  He  He13  1  0.05549531  0.11617582  0.25000000  1
  He  He14  1  0.44450469  0.61617582  0.25000000  1
  He  He15  1  0.94450469  0.88382418  0.75000000  1
