# generated using pymatgen
data_H6He16Li
_symmetry_space_group_name_H-M   'P 1'
_cell_length_a   9.13783961
_cell_length_b   9.13783961
_cell_length_c   3.90051755
_cell_angle_alpha   90.00000000
_cell_angle_beta   90.00000000
_cell_angle_gamma   110.27049042
_symmetry_Int_Tables_number   1
_chemical_formula_structural   H6He16Li
_chemical_formula_sum   'H6 He16 Li1'
_cell_volume   305.52263189
_cell_formula_units_Z   1
loop_
 _symmetry_equiv_pos_site_id
 _symmetry_equiv_pos_as_xyz
  1  'x, y, z'
loop_
 _atom_site_type_symbol
 _atom_site_label
 _atom_site_symmetry_multiplicity
 _atom_site_fract_x
 _atom_site_fract_y
 _atom_site_fract_z
 _atom_site_occupancy
  H  H0  1  0.00598867  0.99401133  0.00000000  1
  H  H1  1  0.79172914  0.20827086  0.00000000  1
  H  H2  1  0.62121331  0.74438186  0.00000000  1
  H  H3  1  0.25561814  0.37878669  0.00000000  1
  H  H4  1  0.37108810  0.00003718  0.00000000  1
  H  H5  1  0.99996282  0.62891190  0.00000000  1
  He  He6  1  0.99972548  0.00027452  0.50000000  1
  He  He7  1  0.77753469  0.22246531  0.50000000  1
  He  He8  1  0.63176760  0.71118655  0.50000000  1
  He  He9  1  0.28881345  0.36823240  0.50000000  1
  He  He10  1  0.37359045  0.99951862  0.50000000  1
  He  He11  1  0.00048138  0.62640955  0.50000000  1
  He  He12  1  0.76674093  0.98576982  0.00000000  1
  He  He13  1  0.01423018  0.23325907  0.00000000  1
  He  He14  1  0.55991677  0.18533748  0.00000000  1
  He  He15  1  0.81466252  0.44008323  0.00000000  1
  He  He16  1  0.24032996  0.14647471  0.00000000  1
  He  He17  1  0.85352529  0.75967004  0.00000000  1
  He  He18  1  0.46467015  0.83378326  0.00000000  1
  He  He19  1  0.16621674  0.53532985  0.00000000  1
  He  He20  1  0.14369871  0.85630129  0.00000000  1
  He  He21  1  0.48768356  0.51231644  0.00000000  1
  Li  Li22  1  0.60091194  0.39908806  0.50000000  1
