# generated using pymatgen
data_H2He
_symmetry_space_group_name_H-M   'P 1'
_cell_length_a   12.36653009
_cell_length_b   12.36653009
_cell_length_c   4.37210936
_cell_angle_alpha   90.00000000
_cell_angle_beta   90.00000000
_cell_angle_gamma   90.00000000
_symmetry_Int_Tables_number   1
_chemical_formula_structural   H2He
_chemical_formula_sum   'H32 He16'
_cell_volume   668.63134660
_cell_formula_units_Z   16
loop_
 _symmetry_equiv_pos_site_id
 _symmetry_equiv_pos_as_xyz
  1  'x, y, z'
loop_
 _atom_site_type_symbol
 _atom_site_label
 _atom_site_symmetry_multiplicity
 _atom_site_fract_x
 _atom_site_fract_y
 _atom_site_fract_z
 _atom_site_occupancy
  H  H0  1  0.68750359  0.68750359  0.50000000  1
  H  H1  1  0.31249641  0.31249641  0.50000000  1
  H  H2  1  0.31249641  0.68750359  0.50000000  1
  H  H3  1  0.68750359  0.31249641  0.50000000  1
  H  H4  1  0.81249641  0.81249641  0.50000000  1
  H  H5  1  0.18750359  0.18750359  0.50000000  1
  H  H6  1  0.18750359  0.81249641  0.50000000  1
  H  H7  1  0.81249641  0.18750359  0.50000000  1
  H  H8  1  0.15337147  0.34662853  0.86804411  1
  H  H9  1  0.84662853  0.65337147  0.86804411  1
  H  H10  1  0.65337147  0.15337147  0.86804411  1
  H  H11  1  0.34662853  0.84662853  0.86804411  1
  H  H12  1  0.84662853  0.34662853  0.13195589  1
  H  H13  1  0.15337147  0.65337147  0.13195589  1
  H  H14  1  0.34662853  0.15337147  0.13195589  1
  H  H15  1  0.65337147  0.84662853  0.13195589  1
  H  H16  1  0.50000000  0.25193734  0.50000000  1
  H  H17  1  0.50000000  0.74806266  0.50000000  1
  H  H18  1  0.74806266  0.50000000  0.50000000  1
  H  H19  1  0.25193734  0.50000000  0.50000000  1
  H  H20  1  0.00000000  0.24806266  0.50000000  1
  H  H21  1  -0.00000000  0.75193734  0.50000000  1
  H  H22  1  0.75193734  -0.00000000  0.50000000  1
  H  H23  1  0.24806266  0.00000000  0.50000000  1
  H  H24  1  0.62577530  0.62577530  0.00000000  1
  H  H25  1  0.37422470  0.37422470  -0.00000000  1
  H  H26  1  0.37422470  0.62577530  -0.00000000  1
  H  H27  1  0.62577530  0.37422470  -0.00000000  1
  H  H28  1  0.87422470  0.87422470  -0.00000000  1
  H  H29  1  0.12577530  0.12577530  0.00000000  1
  H  H30  1  0.12577530  0.87422470  0.00000000  1
  H  H31  1  0.87422470  0.12577530  -0.00000000  1
  He  He32  1  0.39494387  0.27187962  0.26016419  1
  He  He33  1  0.60505613  0.72812038  0.26016419  1
  He  He34  1  0.72812038  0.39494387  0.26016419  1
  He  He35  1  0.27187962  0.60505613  0.26016419  1
  He  He36  1  0.60505613  0.27187962  0.73983581  1
  He  He37  1  0.39494387  0.72812038  0.73983581  1
  He  He38  1  0.27187962  0.39494387  0.73983581  1
  He  He39  1  0.72812038  0.60505613  0.73983581  1
  He  He40  1  0.10505613  0.22812038  0.73983581  1
  He  He41  1  0.89494387  0.77187962  0.73983581  1
  He  He42  1  0.77187962  0.10505613  0.73983581  1
  He  He43  1  0.22812038  0.89494387  0.73983581  1
  He  He44  1  0.89494387  0.22812038  0.26016419  1
  He  He45  1  0.10505613  0.77187962  0.26016419  1
  He  He46  1  0.22812038  0.10505613  0.26016419  1
  He  He47  1  0.77187962  0.89494387  0.26016419  1
