# generated using pymatgen
data_HHeLi
_symmetry_space_group_name_H-M   'P 1'
_cell_length_a   13.03069548
_cell_length_b   13.03069548
_cell_length_c   7.17013500
_cell_angle_alpha   90.01253932
_cell_angle_beta   90.01253932
_cell_angle_gamma   110.75910329
_symmetry_Int_Tables_number   1
_chemical_formula_structural   HHeLi
_chemical_formula_sum   'H16 He16 Li16'
_cell_volume   1138.44158742
_cell_formula_units_Z   16
loop_
 _symmetry_equiv_pos_site_id
 _symmetry_equiv_pos_as_xyz
  1  'x, y, z'
loop_
 _atom_site_type_symbol
 _atom_site_label
 _atom_site_symmetry_multiplicity
 _atom_site_fract_x
 _atom_site_fract_y
 _atom_site_fract_z
 _atom_site_occupancy
  H  H0  1  0.50429227  0.25117290  0.77789964  1
  H  H1  1  0.99571070  0.24880788  0.77797090  1
  H  H2  1  0.74868272  0.49569650  0.72213290  1
  H  H3  1  0.75121153  0.00425930  0.72203059  1
  H  H4  1  0.49569650  0.74868272  0.22213290  1
  H  H5  1  0.00425930  0.75121153  0.22203059  1
  H  H6  1  0.25117290  0.50429227  0.27789964  1
  H  H7  1  0.24880788  0.99571070  0.27797090  1
  H  H8  1  0.74996619  0.24995611  0.52866685  1
  H  H9  1  0.74992614  0.24996234  0.97134373  1
  H  H10  1  0.24996234  0.74992614  0.47134373  1
  H  H11  1  0.24995611  0.74996619  0.02866685  1
  H  H12  1  0.50000582  0.49999381  0.99994738  1
  H  H13  1  0.00000754  0.00000838  0.99997958  1
  H  H14  1  0.49999381  0.50000582  0.49994738  1
  H  H15  1  0.00000838  0.00000754  0.49997958  1
  He  He16  1  0.50191347  0.00166360  0.24999094  1
  He  He17  1  0.99808995  0.49805702  0.24998316  1
  He  He18  1  0.49805702  0.99808995  0.74998316  1
  He  He19  1  0.00166360  0.50191347  0.74999094  1
  He  He20  1  0.86353644  0.13647769  0.25000198  1
  He  He21  1  0.63641927  0.36347473  0.25006760  1
  He  He22  1  0.13647769  0.86353644  0.75000198  1
  He  He23  1  0.36347473  0.63641927  0.75006760  1
  He  He24  1  0.24704651  0.37697178  0.91025571  1
  He  He25  1  0.25294681  0.12303826  0.91034901  1
  He  He26  1  0.62306632  0.75291232  0.58974834  1
  He  He27  1  0.87696548  0.74710532  0.58963835  1
  He  He28  1  0.75291232  0.62306632  0.08974834  1
  He  He29  1  0.74710532  0.87696548  0.08963835  1
  He  He30  1  0.37697178  0.24704651  0.41025571  1
  He  He31  1  0.12303826  0.25294681  0.41034901  1
  Li  Li32  1  0.55798914  0.18268773  0.50736670  1
  Li  Li33  1  0.94194318  0.31723002  0.50746632  1
  Li  Li34  1  0.81707505  0.44193829  0.99269480  1
  Li  Li35  1  0.68277956  0.05798884  0.99255667  1
  Li  Li36  1  0.44193829  0.81707505  0.49269480  1
  Li  Li37  1  0.05798884  0.68277956  0.49255667  1
  Li  Li38  1  0.18268773  0.55798914  0.00736670  1
  Li  Li39  1  0.31723002  0.94194318  0.00746632  1
  Li  Li40  1  0.43083381  0.30979344  0.03612145  1
  Li  Li41  1  0.06918866  0.19022347  0.03620310  1
  Li  Li42  1  0.69019923  0.56918193  0.46382310  1
  Li  Li43  1  0.80979041  0.93081211  0.46376122  1
  Li  Li44  1  0.56918193  0.69019923  0.96382310  1
  Li  Li45  1  0.93081211  0.80979041  0.96376122  1
  Li  Li46  1  0.30979344  0.43083381  0.53612145  1
  Li  Li47  1  0.19022347  0.06918866  0.53620310  1
