# generated using pymatgen
data_H6He9Li2
_symmetry_space_group_name_H-M   'P 1'
_cell_length_a   8.27486177
_cell_length_b   8.27486177
_cell_length_c   17.76558119
_cell_angle_alpha   90.00000000
_cell_angle_beta   90.00000000
_cell_angle_gamma   90.00000000
_symmetry_Int_Tables_number   1
_chemical_formula_structural   H6He9Li2
_chemical_formula_sum   'H24 He36 Li8'
_cell_volume   1216.46863304
_cell_formula_units_Z   4
loop_
 _symmetry_equiv_pos_site_id
 _symmetry_equiv_pos_as_xyz
  1  'x, y, z'
loop_
 _atom_site_type_symbol
 _atom_site_label
 _atom_site_symmetry_multiplicity
 _atom_site_fract_x
 _atom_site_fract_y
 _atom_site_fract_z
 _atom_site_occupancy
  H  H0  1  0.00305232  0.47476401  0.37306560  1
  H  H1  1  0.99694768  0.52523599  0.87306560  1
  H  H2  1  0.02523599  0.50305232  0.62306560  1
  H  H3  1  0.97476401  0.49694768  0.12306560  1
  H  H4  1  0.49694768  0.97476401  0.87693440  1
  H  H5  1  0.50305232  0.02523599  0.37693440  1
  H  H6  1  0.47476401  0.00305232  0.62693440  1
  H  H7  1  0.52523599  0.99694768  0.12693440  1
  H  H8  1  0.22473650  0.20782692  0.24645205  1
  H  H9  1  0.77526350  0.79217308  0.74645205  1
  H  H10  1  0.29217308  0.72473650  0.49645205  1
  H  H11  1  0.70782692  0.27526350  0.99645205  1
  H  H12  1  0.27526350  0.70782692  0.00354795  1
  H  H13  1  0.72473650  0.29217308  0.50354795  1
  H  H14  1  0.20782692  0.22473650  0.75354795  1
  H  H15  1  0.79217308  0.77526350  0.25354795  1
  H  H16  1  0.00038026  0.04239809  0.39602837  1
  H  H17  1  0.99961974  0.95760191  0.89602837  1
  H  H18  1  0.45760191  0.50038026  0.64602837  1
  H  H19  1  0.54239809  0.49961974  0.14602837  1
  H  H20  1  0.49961974  0.54239809  0.85397163  1
  H  H21  1  0.50038026  0.45760191  0.35397163  1
  H  H22  1  0.04239809  0.00038026  0.60397163  1
  H  H23  1  0.95760191  0.99961974  0.10397163  1
  He  He24  1  0.26429982  0.03584591  0.01526039  1
  He  He25  1  0.73570018  0.96415409  0.51526039  1
  He  He26  1  0.46415409  0.76429982  0.26526039  1
  He  He27  1  0.53584591  0.23570018  0.76526039  1
  He  He28  1  0.23570018  0.53584591  0.23473961  1
  He  He29  1  0.76429982  0.46415409  0.73473961  1
  He  He30  1  0.03584591  0.26429982  0.98473961  1
  He  He31  1  0.96415409  0.73570018  0.48473961  1
  He  He32  1  0.28883908  0.33932679  0.07639319  1
  He  He33  1  0.71116092  0.66067321  0.57639319  1
  He  He34  1  0.16067321  0.78883908  0.32639319  1
  He  He35  1  0.83932679  0.21116092  0.82639319  1
  He  He36  1  0.21116092  0.83932679  0.17360681  1
  He  He37  1  0.78883908  0.16067321  0.67360681  1
  He  He38  1  0.33932679  0.28883908  0.92360681  1
  He  He39  1  0.66067321  0.71116092  0.42360681  1
  He  He40  1  0.25145032  0.25940691  0.39657251  1
  He  He41  1  0.74854968  0.74059309  0.89657251  1
  He  He42  1  0.24059309  0.75145032  0.64657251  1
  He  He43  1  0.75940691  0.24854968  0.14657251  1
  He  He44  1  0.24854968  0.75940691  0.85342749  1
  He  He45  1  0.75145032  0.24059309  0.35342749  1
  He  He46  1  0.25940691  0.25145032  0.60342749  1
  He  He47  1  0.74059309  0.74854968  0.10342749  1
  He  He48  1  0.04662412  0.30017994  0.50239028  1
  He  He49  1  0.95337588  0.69982006  0.00239028  1
  He  He50  1  0.19982006  0.54662412  0.75239028  1
  He  He51  1  0.80017994  0.45337588  0.25239028  1
  He  He52  1  0.45337588  0.80017994  0.74760972  1
  He  He53  1  0.54662412  0.19982006  0.24760972  1
  He  He54  1  0.30017994  0.04662412  0.49760972  1
  He  He55  1  0.69982006  0.95337588  0.99760972  1
  He  He56  1  0.59510750  0.59510750  0.00000000  1
  He  He57  1  0.40489250  0.40489250  0.50000000  1
  He  He58  1  0.90489250  0.09510750  0.25000000  1
  He  He59  1  0.09510750  0.90489250  0.75000000  1
  Li  Li60  1  0.23388776  0.23388776  0.00000000  1
  Li  Li61  1  0.76611224  0.76611224  0.50000000  1
  Li  Li62  1  0.26611224  0.73388776  0.25000000  1
  Li  Li63  1  0.73388776  0.26611224  0.75000000  1
  Li  Li64  1  0.25423224  0.25423224  0.50000000  1
  Li  Li65  1  0.74576776  0.74576776  0.00000000  1
  Li  Li66  1  0.24576776  0.75423224  0.75000000  1
  Li  Li67  1  0.75423224  0.24576776  0.25000000  1
