# generated using pymatgen
data_H2He
_symmetry_space_group_name_H-M   'P 1'
_cell_length_a   4.96832219
_cell_length_b   4.96844656
_cell_length_c   5.47008411
_cell_angle_alpha   89.99968097
_cell_angle_beta   89.99972677
_cell_angle_gamma   120.00021956
_symmetry_Int_Tables_number   1
_chemical_formula_structural   H2He
_chemical_formula_sum   'H6 He3'
_cell_volume   116.93756606
_cell_formula_units_Z   3
loop_
 _symmetry_equiv_pos_site_id
 _symmetry_equiv_pos_as_xyz
  1  'x, y, z'
loop_
 _atom_site_type_symbol
 _atom_site_label
 _atom_site_symmetry_multiplicity
 _atom_site_fract_x
 _atom_site_fract_y
 _atom_site_fract_z
 _atom_site_occupancy
  H  H0  1  0.41298005  0.26746703  0.78535853  1
  H  H1  1  0.73251921  0.14550313  0.45203922  1
  H  H2  1  0.85448308  0.58701519  0.11869441  1
  H  H3  1  0.26746716  0.41298313  0.21464614  1
  H  H4  1  0.14552356  0.73254701  0.54799332  1
  H  H5  1  0.58702256  0.85448877  0.88131534  1
  He  He6  1  0.46962585  -0.00000323  0.66666765  1
  He  He7  1  0.00000310  0.46962460  0.33333398  1
  He  He8  1  0.53037543  0.53037435  0.00001807  1
