# generated using pymatgen
data_H2He
_symmetry_space_group_name_H-M   'P 1'
_cell_length_a   5.12400151
_cell_length_b   5.55424887
_cell_length_c   6.03520763
_cell_angle_alpha   90.00000000
_cell_angle_beta   90.00000000
_cell_angle_gamma   90.00000000
_symmetry_Int_Tables_number   1
_chemical_formula_structural   H2He
_chemical_formula_sum   'H8 He4'
_cell_volume   171.76188612
_cell_formula_units_Z   4
loop_
 _symmetry_equiv_pos_site_id
 _symmetry_equiv_pos_as_xyz
  1  'x, y, z'
loop_
 _atom_site_type_symbol
 _atom_site_label
 _atom_site_symmetry_multiplicity
 _atom_site_fract_x
 _atom_site_fract_y
 _atom_site_fract_z
 _atom_site_occupancy
  H  H0  1  0.73345960  0.42912183  0.40596469  1
  H  H1  1  0.76654040  0.92912183  0.09403531  1
  H  H2  1  0.26654040  0.07087817  0.40596469  1
  H  H3  1  0.23345960  0.57087817  0.09403531  1
  H  H4  1  0.26654040  0.57087817  0.59403531  1
  H  H5  1  0.23345960  0.07087817  0.90596469  1
  H  H6  1  0.73345960  0.92912183  0.59403531  1
  H  H7  1  0.76654040  0.42912183  0.90596469  1
  He  He8  1  -0.00000000  0.25000000  0.17972576  1
  He  He9  1  0.50000000  0.75000000  0.32027424  1
  He  He10  1  0.00000000  0.75000000  0.82027424  1
  He  He11  1  0.50000000  0.25000000  0.67972576  1
