# generated using pymatgen
data_H2He2Li7
_symmetry_space_group_name_H-M   'P 1'
_cell_length_a   7.64436681
_cell_length_b   7.64436681
_cell_length_c   7.61153507
_cell_angle_alpha   88.28067949
_cell_angle_beta   88.28067949
_cell_angle_gamma   59.09004371
_symmetry_Int_Tables_number   1
_chemical_formula_structural   H2He2Li7
_chemical_formula_sum   'H4 He4 Li14'
_cell_volume   381.39221516
_cell_formula_units_Z   2
loop_
 _symmetry_equiv_pos_site_id
 _symmetry_equiv_pos_as_xyz
  1  'x, y, z'
loop_
 _atom_site_type_symbol
 _atom_site_label
 _atom_site_symmetry_multiplicity
 _atom_site_fract_x
 _atom_site_fract_y
 _atom_site_fract_z
 _atom_site_occupancy
  H  H0  1  0.77723993  0.42795596  0.13553858  1
  H  H1  1  0.57204404  0.22276007  0.36446142  1
  H  H2  1  0.22276007  0.57204404  0.86446142  1
  H  H3  1  0.42795596  0.77723993  0.63553858  1
  He  He4  1  0.00296642  0.70615935  0.35649101  1
  He  He5  1  0.29384065  0.99703358  0.14350899  1
  He  He6  1  0.99703358  0.29384065  0.64350899  1
  He  He7  1  0.70615935  0.00296642  0.85649101  1
  Li  Li8  1  0.86426132  0.25435304  0.98272372  1
  Li  Li9  1  0.74564696  0.13573868  0.51727628  1
  Li  Li10  1  0.13573868  0.74564696  0.01727628  1
  Li  Li11  1  0.25435304  0.86426132  0.48272372  1
  Li  Li12  1  0.95948195  0.36542018  0.27609243  1
  Li  Li13  1  0.63457982  0.04051805  0.22390757  1
  Li  Li14  1  0.04051805  0.63457982  0.72390757  1
  Li  Li15  1  0.36542018  0.95948195  0.77609243  1
  Li  Li16  1  0.56616462  0.43383538  0.25000000  1
  Li  Li17  1  0.43383538  0.56616462  0.75000000  1
  Li  Li18  1  0.70286192  0.65294548  0.05071684  1
  Li  Li19  1  0.34705452  0.29713808  0.44928316  1
  Li  Li20  1  0.29713808  0.34705452  0.94928316  1
  Li  Li21  1  0.65294548  0.70286192  0.55071684  1
