# generated using pymatgen
data_H3He5
_symmetry_space_group_name_H-M   'P 1'
_cell_length_a   10.86129897
_cell_length_b   10.86129897
_cell_length_c   6.38454397
_cell_angle_alpha   90.00000000
_cell_angle_beta   90.00000000
_cell_angle_gamma   90.00000000
_symmetry_Int_Tables_number   1
_chemical_formula_structural   H3He5
_chemical_formula_sum   'H12 He20'
_cell_volume   753.17070416
_cell_formula_units_Z   4
loop_
 _symmetry_equiv_pos_site_id
 _symmetry_equiv_pos_as_xyz
  1  'x, y, z'
loop_
 _atom_site_type_symbol
 _atom_site_label
 _atom_site_symmetry_multiplicity
 _atom_site_fract_x
 _atom_site_fract_y
 _atom_site_fract_z
 _atom_site_occupancy
  H  H0  1  0.59648447  0.40351553  0.25000000  1
  H  H1  1  0.90351553  0.09648447  0.25000000  1
  H  H2  1  0.09648447  0.59648447  0.25000000  1
  H  H3  1  0.40351553  0.90351553  0.25000000  1
  H  H4  1  0.40351553  0.59648447  0.75000000  1
  H  H5  1  0.09648447  0.90351553  0.75000000  1
  H  H6  1  0.90351553  0.40351553  0.75000000  1
  H  H7  1  0.59648447  0.09648447  0.75000000  1
  H  H8  1  0.25000000  0.25000000  0.37225198  1
  H  H9  1  0.75000000  0.75000000  0.12774802  1
  H  H10  1  0.75000000  0.75000000  0.62774802  1
  H  H11  1  0.25000000  0.25000000  0.87225198  1
  He  He12  1  0.04197774  0.33921257  0.11635971  1
  He  He13  1  0.45802226  0.16078743  0.11635971  1
  He  He14  1  0.16078743  0.04197774  0.11635971  1
  He  He15  1  0.33921257  0.45802226  0.11635971  1
  He  He16  1  0.95802226  0.83921257  0.38364029  1
  He  He17  1  0.54197774  0.66078743  0.38364029  1
  He  He18  1  0.83921257  0.54197774  0.38364029  1
  He  He19  1  0.66078743  0.95802226  0.38364029  1
  He  He20  1  0.95802226  0.66078743  0.88364029  1
  He  He21  1  0.54197774  0.83921257  0.88364029  1
  He  He22  1  0.83921257  0.95802226  0.88364029  1
  He  He23  1  0.66078743  0.54197774  0.88364029  1
  He  He24  1  0.04197774  0.16078743  0.61635971  1
  He  He25  1  0.45802226  0.33921257  0.61635971  1
  He  He26  1  0.16078743  0.45802226  0.61635971  1
  He  He27  1  0.33921257  0.04197774  0.61635971  1
  He  He28  1  0.75000000  0.25000000  0.00000000  1
  He  He29  1  0.25000000  0.75000000  -0.00000000  1
  He  He30  1  0.25000000  0.75000000  0.50000000  1
  He  He31  1  0.75000000  0.25000000  0.50000000  1
