# generated using pymatgen
data_HHe6Li2
_symmetry_space_group_name_H-M   'P 1'
_cell_length_a   11.33727774
_cell_length_b   11.33727774
_cell_length_c   4.12454596
_cell_angle_alpha   90.00000000
_cell_angle_beta   90.00000000
_cell_angle_gamma   159.62821736
_symmetry_Int_Tables_number   1
_chemical_formula_structural   HHe6Li2
_chemical_formula_sum   'H1 He6 Li2'
_cell_volume   184.54858808
_cell_formula_units_Z   1
loop_
 _symmetry_equiv_pos_site_id
 _symmetry_equiv_pos_as_xyz
  1  'x, y, z'
loop_
 _atom_site_type_symbol
 _atom_site_label
 _atom_site_symmetry_multiplicity
 _atom_site_fract_x
 _atom_site_fract_y
 _atom_site_fract_z
 _atom_site_occupancy
  H  H0  1  0.77579652  0.22420348  0.50000000  1
  He  He1  1  0.71522884  0.28477116  0.00000000  1
  He  He2  1  0.60302351  0.39697649  0.00000000  1
  He  He3  1  0.45001625  0.54998375  0.50000000  1
  He  He4  1  0.88256114  0.11743886  0.50000000  1
  He  He5  1  0.10117261  0.89882739  0.50000000  1
  He  He6  1  0.21362610  0.78637390  0.50000000  1
  Li  Li7  1  0.99652472  0.00347528  0.00000000  1
  Li  Li8  1  0.33105031  0.66894969  0.00000000  1
