# generated using pymatgen
data_HHeLi2
_symmetry_space_group_name_H-M   'P 1'
_cell_length_a   7.04233512
_cell_length_b   7.04233512
_cell_length_c   7.04233512
_cell_angle_alpha   128.41208803
_cell_angle_beta   128.41208803
_cell_angle_gamma   75.95840638
_symmetry_Int_Tables_number   1
_chemical_formula_structural   HHeLi2
_chemical_formula_sum   'H2 He2 Li4'
_cell_volume   208.50457569
_cell_formula_units_Z   2
loop_
 _symmetry_equiv_pos_site_id
 _symmetry_equiv_pos_as_xyz
  1  'x, y, z'
loop_
 _atom_site_type_symbol
 _atom_site_label
 _atom_site_symmetry_multiplicity
 _atom_site_fract_x
 _atom_site_fract_y
 _atom_site_fract_z
 _atom_site_occupancy
  H  H0  1  0.00000000  0.00000000  0.00000000  1
  H  H1  1  0.75000000  0.25000000  0.50000000  1
  He  He2  1  0.50000000  0.50000000  -0.00000000  1
  He  He3  1  0.25000000  0.75000000  0.50000000  1
  Li  Li4  1  0.58936509  0.62500000  0.46436509  1
  Li  Li5  1  0.16063491  0.12500000  0.53563491  1
  Li  Li6  1  0.87500000  0.41063491  0.03563491  1
  Li  Li7  1  0.37500000  0.83936509  0.96436509  1
