# generated using pymatgen
data_H12He
_symmetry_space_group_name_H-M   'P 1'
_cell_length_a   5.45722303
_cell_length_b   5.45722303
_cell_length_c   5.45722303
_cell_angle_alpha   98.05481135
_cell_angle_beta   98.05481135
_cell_angle_gamma   136.03460879
_symmetry_Int_Tables_number   1
_chemical_formula_structural   H12He
_chemical_formula_sum   'H12 He1'
_cell_volume   104.62450069
_cell_formula_units_Z   1
loop_
 _symmetry_equiv_pos_site_id
 _symmetry_equiv_pos_as_xyz
  1  'x, y, z'
loop_
 _atom_site_type_symbol
 _atom_site_label
 _atom_site_symmetry_multiplicity
 _atom_site_fract_x
 _atom_site_fract_y
 _atom_site_fract_z
 _atom_site_occupancy
  H  H0  1  -0.00000000  0.50000000  -0.00000000  1
  H  H1  1  0.50000000  -0.00000000  -0.00000000  1
  H  H2  1  0.50000000  0.50000000  0.50000000  1
  H  H3  1  -0.00000000  -0.00000000  0.50000000  1
  H  H4  1  0.65583529  -0.00000000  0.65583529  1
  H  H5  1  0.34416471  0.00000000  0.34416471  1
  H  H6  1  0.00000000  0.34416471  0.34416471  1
  H  H7  1  -0.00000000  0.65583529  0.65583529  1
  H  H8  1  0.71352466  0.50000000  0.21352466  1
  H  H9  1  0.28647534  0.50000000  0.78647534  1
  H  H10  1  0.50000000  0.28647534  0.78647534  1
  H  H11  1  0.50000000  0.71352466  0.21352466  1
  He  He12  1  0.00000000  0.00000000  0.00000000  1
