# generated using pymatgen
data_HHe(Li5Be2)2
_symmetry_space_group_name_H-M   'P 1'
_cell_length_a   5.96964696
_cell_length_b   5.02145815
_cell_length_c   7.60212894
_cell_angle_alpha   93.51191578
_cell_angle_beta   112.71378698
_cell_angle_gamma   90.07136840
_symmetry_Int_Tables_number   1
_chemical_formula_structural   HHe(Li5Be2)2
_chemical_formula_sum   'H1 He1 Li10 Be4'
_cell_volume   209.73896011
_cell_formula_units_Z   1
loop_
 _symmetry_equiv_pos_site_id
 _symmetry_equiv_pos_as_xyz
  1  'x, y, z'
loop_
 _atom_site_type_symbol
 _atom_site_label
 _atom_site_symmetry_multiplicity
 _atom_site_fract_x
 _atom_site_fract_y
 _atom_site_fract_z
 _atom_site_occupancy
  H  H0  1  0.53666803  0.72922150  0.02228914  1
  He  He1  1  0.69108330  0.19135845  0.00289965  1
  Li  Li2  1  0.97957546  0.42148085  0.47982039  1
  Li  Li3  1  0.50106057  0.06921328  0.55253343  1
  Li  Li4  1  0.20344928  0.29101457  0.24635587  1
  Li  Li5  1  0.81399919  0.69073032  0.71217852  1
  Li  Li6  1  0.75153795  0.47234574  0.10364590  1
  Li  Li7  1  0.29094380  0.59308952  0.83095852  1
  Li  Li8  1  0.11313132  0.80202322  0.30778785  1
  Li  Li9  1  0.96106412  0.20527060  0.78067624  1
  Li  Li10  1  0.48791435  0.90054116  0.20695899  1
  Li  Li11  1  0.66411558  0.00352727  0.92878793  1
  Be  Be12  1  0.01417288  0.49574827  0.28664419  1
  Be  Be13  1  0.02228163  0.48343185  0.70308599  1
  Be  Be14  1  0.33201219  0.01042396  0.32467983  1
  Be  Be15  1  0.73739035  0.99447944  0.73399758  1
