# generated using pymatgen
data_H7HeLi
_symmetry_space_group_name_H-M   'P 1'
_cell_length_a   6.46341476
_cell_length_b   10.34250172
_cell_length_c   9.89131891
_cell_angle_alpha   67.78730163
_cell_angle_beta   90.00000000
_cell_angle_gamma   90.00000000
_symmetry_Int_Tables_number   1
_chemical_formula_structural   H7HeLi
_chemical_formula_sum   'H28 He4 Li4'
_cell_volume   612.14291379
_cell_formula_units_Z   4
loop_
 _symmetry_equiv_pos_site_id
 _symmetry_equiv_pos_as_xyz
  1  'x, y, z'
loop_
 _atom_site_type_symbol
 _atom_site_label
 _atom_site_symmetry_multiplicity
 _atom_site_fract_x
 _atom_site_fract_y
 _atom_site_fract_z
 _atom_site_occupancy
  H  H0  1  0.84302773  0.27074555  0.10658428  1
  H  H1  1  0.34302773  0.22925445  0.89341572  1
  H  H2  1  0.15697227  0.72925445  0.89341572  1
  H  H3  1  0.65697227  0.77074555  0.10658428  1
  H  H4  1  0.96105817  0.19265887  0.91973478  1
  H  H5  1  0.46105817  0.30734113  0.08026522  1
  H  H6  1  0.03894183  0.80734113  0.08026522  1
  H  H7  1  0.53894183  0.69265887  0.91973478  1
  H  H8  1  0.96781994  0.43249318  0.42317659  1
  H  H9  1  0.46781994  0.06750682  0.57682341  1
  H  H10  1  0.03218006  0.56750682  0.57682341  1
  H  H11  1  0.53218006  0.93249318  0.42317659  1
  H  H12  1  0.38447800  0.95634644  0.90069622  1
  H  H13  1  0.88447800  0.54365356  0.09930378  1
  H  H14  1  0.61552200  0.04365356  0.09930378  1
  H  H15  1  0.11552200  0.45634644  0.90069622  1
  H  H16  1  0.67019205  0.22599642  0.74492384  1
  H  H17  1  0.17019205  0.27400358  0.25507616  1
  H  H18  1  0.32980795  0.77400358  0.25507616  1
  H  H19  1  0.82980795  0.72599642  0.74492384  1
  H  H20  1  0.68525978  0.42956780  0.82132258  1
  H  H21  1  0.18525978  0.07043220  0.17867742  1
  H  H22  1  0.31474022  0.57043220  0.17867742  1
  H  H23  1  0.81474022  0.92956780  0.82132258  1
  H  H24  1  0.97849877  0.10793701  0.52792426  1
  H  H25  1  0.47849877  0.39206299  0.47207574  1
  H  H26  1  0.02150123  0.89206299  0.47207574  1
  H  H27  1  0.52150123  0.60793701  0.52792426  1
  He  He28  1  0.15029387  0.27228107  0.04454362  1
  He  He29  1  0.65029387  0.22771893  0.95545638  1
  He  He30  1  0.84970613  0.72771893  0.95545638  1
  He  He31  1  0.34970613  0.77228107  0.04454362  1
  Li  Li32  1  0.25358027  0.55955236  0.41115104  1
  Li  Li33  1  0.75358027  0.94044764  0.58884896  1
  Li  Li34  1  0.74641973  0.44044764  0.58884896  1
  Li  Li35  1  0.24641973  0.05955236  0.41115104  1
