# generated using pymatgen
data_HHe2(LiBe)2
_symmetry_space_group_name_H-M   'P 1'
_cell_length_a   4.88209705
_cell_length_b   5.41133988
_cell_length_c   14.56346110
_cell_angle_alpha   90.00000000
_cell_angle_beta   90.00000000
_cell_angle_gamma   90.00000000
_symmetry_Int_Tables_number   1
_chemical_formula_structural   HHe2(LiBe)2
_chemical_formula_sum   'H4 He8 Li8 Be8'
_cell_volume   384.74751283
_cell_formula_units_Z   4
loop_
 _symmetry_equiv_pos_site_id
 _symmetry_equiv_pos_as_xyz
  1  'x, y, z'
loop_
 _atom_site_type_symbol
 _atom_site_label
 _atom_site_symmetry_multiplicity
 _atom_site_fract_x
 _atom_site_fract_y
 _atom_site_fract_z
 _atom_site_occupancy
  H  H0  1  0.25000000  0.75284308  -0.00000000  1
  H  H1  1  0.75000000  0.74715692  0.50000000  1
  H  H2  1  0.75000000  0.24715692  0.00000000  1
  H  H3  1  0.25000000  0.25284308  0.50000000  1
  He  He4  1  0.84707274  0.86957751  0.72253089  1
  He  He5  1  0.34707274  0.63042249  0.77746911  1
  He  He6  1  0.65292726  0.86957751  0.27746911  1
  He  He7  1  0.15292726  0.63042249  0.22253089  1
  He  He8  1  0.15292726  0.13042249  0.27746911  1
  He  He9  1  0.65292726  0.36957751  0.22253089  1
  He  He10  1  0.34707274  0.13042249  0.72253089  1
  He  He11  1  0.84707274  0.36957751  0.77746911  1
  Li  Li12  1  0.75054360  0.73171992  0.90693862  1
  Li  Li13  1  0.25054360  0.76828008  0.59306138  1
  Li  Li14  1  0.74945640  0.73171992  0.09306138  1
  Li  Li15  1  0.24945640  0.76828008  0.40693862  1
  Li  Li16  1  0.24945640  0.26828008  0.09306138  1
  Li  Li17  1  0.74945640  0.23171992  0.40693862  1
  Li  Li18  1  0.25054360  0.26828008  0.90693862  1
  Li  Li19  1  0.75054360  0.23171992  0.59306138  1
  Be  Be20  1  0.69973129  0.66009633  0.79960984  1
  Be  Be21  1  0.19973129  0.83990367  0.70039016  1
  Be  Be22  1  0.80026871  0.66009633  0.20039016  1
  Be  Be23  1  0.30026871  0.83990367  0.29960984  1
  Be  Be24  1  0.30026871  0.33990367  0.20039016  1
  Be  Be25  1  0.80026871  0.16009633  0.29960984  1
  Be  Be26  1  0.19973129  0.33990367  0.79960984  1
  Be  Be27  1  0.69973129  0.16009633  0.70039016  1
