# generated using pymatgen
data_H2He3
_symmetry_space_group_name_H-M   'P 1'
_cell_length_a   8.60690234
_cell_length_b   8.40804639
_cell_length_c   6.42587093
_cell_angle_alpha   69.46287785
_cell_angle_beta   66.17865090
_cell_angle_gamma   44.35847124
_symmetry_Int_Tables_number   1
_chemical_formula_structural   H2He3
_chemical_formula_sum   'H4 He6'
_cell_volume   296.01851349
_cell_formula_units_Z   2
loop_
 _symmetry_equiv_pos_site_id
 _symmetry_equiv_pos_as_xyz
  1  'x, y, z'
loop_
 _atom_site_type_symbol
 _atom_site_label
 _atom_site_symmetry_multiplicity
 _atom_site_fract_x
 _atom_site_fract_y
 _atom_site_fract_z
 _atom_site_occupancy
  H  H0  1  0.72678839  0.27321161  0.72678839  1
  H  H1  1  0.27321161  0.72678839  0.27321161  1
  H  H2  1  0.25000000  0.25000000  0.25000000  1
  H  H3  1  0.75000000  0.75000000  0.75000000  1
  He  He4  1  0.15172876  0.15172876  0.84827124  1
  He  He5  1  0.84827124  0.84827124  0.15172876  1
  He  He6  1  0.29046424  0.86023904  0.70953576  1
  He  He7  1  0.13976096  0.70953576  0.86023904  1
  He  He8  1  0.86023904  0.29046424  0.13976096  1
  He  He9  1  0.70953576  0.13976096  0.29046424  1
