# generated using pymatgen
data_H6HeLi4
_symmetry_space_group_name_H-M   'P 1'
_cell_length_a   7.27734773
_cell_length_b   7.18990885
_cell_length_c   7.94936605
_cell_angle_alpha   75.03729844
_cell_angle_beta   76.78857311
_cell_angle_gamma   80.27901456
_symmetry_Int_Tables_number   1
_chemical_formula_structural   H6HeLi4
_chemical_formula_sum   'H6 He1 Li4'
_cell_volume   388.52333174
_cell_formula_units_Z   1
loop_
 _symmetry_equiv_pos_site_id
 _symmetry_equiv_pos_as_xyz
  1  'x, y, z'
loop_
 _atom_site_type_symbol
 _atom_site_label
 _atom_site_symmetry_multiplicity
 _atom_site_fract_x
 _atom_site_fract_y
 _atom_site_fract_z
 _atom_site_occupancy
  H  H0  1  0.12558186  0.65933111  0.11868077  1
  H  H1  1  0.87441814  0.34066889  0.88131923  1
  H  H2  1  0.24651481  0.11545665  0.09426342  1
  H  H3  1  0.75348519  0.88454335  0.90573658  1
  H  H4  1  0.20996128  0.99675426  0.70576943  1
  H  H5  1  0.79003872  0.00324574  0.29423057  1
  He  He6  1  -0.00000000  -0.00000000  -0.00000000  1
  Li  Li7  1  0.28890831  0.69024252  0.44247153  1
  Li  Li8  1  0.71109169  0.30975748  0.55752847  1
  Li  Li9  1  0.50182038  0.40073166  0.29742798  1
  Li  Li10  1  0.49817962  0.59926834  0.70257202  1
