# generated using pymatgen
data_H3He7Li
_symmetry_space_group_name_H-M   'P 1'
_cell_length_a   8.47300000
_cell_length_b   8.47300000
_cell_length_c   6.31300000
_cell_angle_alpha   90.00000000
_cell_angle_beta   90.00000000
_cell_angle_gamma   90.00000000
_symmetry_Int_Tables_number   1
_chemical_formula_structural   H3He7Li
_chemical_formula_sum   'H6 He14 Li2'
_cell_volume   453.22118518
_cell_formula_units_Z   2
loop_
 _symmetry_equiv_pos_site_id
 _symmetry_equiv_pos_as_xyz
  1  'x, y, z'
loop_
 _atom_site_type_symbol
 _atom_site_label
 _atom_site_symmetry_multiplicity
 _atom_site_fract_x
 _atom_site_fract_y
 _atom_site_fract_z
 _atom_site_occupancy
  H  H0  1  0.00000000  0.00000000  0.00000000  1
  H  H1  1  0.50000000  0.50000000  0.00000000  1
  H  H2  1  0.30500000  0.80500000  0.50000000  1
  H  H3  1  0.69500000  0.19500000  0.50000000  1
  H  H4  1  0.19500000  0.30500000  0.50000000  1
  H  H5  1  0.80500000  0.69500000  0.50000000  1
  He  He6  1  0.00000000  0.00000000  0.50000000  1
  He  He7  1  0.50000000  0.50000000  0.50000000  1
  He  He8  1  0.33980000  0.83980000  0.00000000  1
  He  He9  1  0.66020000  0.16020000  0.00000000  1
  He  He10  1  0.16020000  0.33980000  0.00000000  1
  He  He11  1  0.83980000  0.66020000  0.00000000  1
  He  He12  1  0.11330000  0.61330000  0.21510000  1
  He  He13  1  0.88670000  0.38670000  0.21510000  1
  He  He14  1  0.38670000  0.11330000  0.21510000  1
  He  He15  1  0.61330000  0.88670000  0.21510000  1
  He  He16  1  0.38670000  0.11330000  0.78490000  1
  He  He17  1  0.61330000  0.88670000  0.78490000  1
  He  He18  1  0.11330000  0.61330000  0.78490000  1
  He  He19  1  0.88670000  0.38670000  0.78490000  1
  Li  Li20  1  0.00000000  0.50000000  0.00000000  1
  Li  Li21  1  0.50000000  0.00000000  0.00000000  1
