# generated using pymatgen
data_HHe4Li
_symmetry_space_group_name_H-M   'P 1'
_cell_length_a   12.25386348
_cell_length_b   12.25386348
_cell_length_c   12.25386348
_cell_angle_alpha   127.51396442
_cell_angle_beta   127.51396442
_cell_angle_gamma   77.41372004
_symmetry_Int_Tables_number   1
_chemical_formula_structural   HHe4Li
_chemical_formula_sum   'H8 He32 Li8'
_cell_volume   1122.97120148
_cell_formula_units_Z   8
loop_
 _symmetry_equiv_pos_site_id
 _symmetry_equiv_pos_as_xyz
  1  'x, y, z'
loop_
 _atom_site_type_symbol
 _atom_site_label
 _atom_site_symmetry_multiplicity
 _atom_site_fract_x
 _atom_site_fract_y
 _atom_site_fract_z
 _atom_site_occupancy
  H  H0  1  0.21226306  0.25000000  0.96226306  1
  H  H1  1  0.28773694  0.75000000  0.53773694  1
  H  H2  1  0.25000000  0.28773694  0.53773694  1
  H  H3  1  0.75000000  0.21226306  0.96226306  1
  H  H4  1  0.78773694  0.75000000  0.03773694  1
  H  H5  1  0.71226306  0.25000000  0.46226306  1
  H  H6  1  0.75000000  0.71226306  0.46226306  1
  H  H7  1  0.25000000  0.78773694  0.03773694  1
  He  He8  1  0.83647650  0.40449474  0.06150893  1
  He  He9  1  0.34298580  0.27496756  0.43849107  1
  He  He10  1  0.40449474  0.34298580  0.06801824  1
  He  He11  1  0.27496756  0.83647650  0.43198176  1
  He  He12  1  0.66352350  0.22503244  0.06801824  1
  He  He13  1  0.15701420  0.09550526  0.43198176  1
  He  He14  1  0.09550526  0.66352350  0.43849107  1
  He  He15  1  0.22503244  0.15701420  0.06150893  1
  He  He16  1  0.16352350  0.59550526  0.93849107  1
  He  He17  1  0.65701420  0.72503244  0.56150893  1
  He  He18  1  0.59550526  0.65701420  0.93198176  1
  He  He19  1  0.72503244  0.16352350  0.56801824  1
  He  He20  1  0.33647650  0.77496756  0.93198176  1
  He  He21  1  0.84298580  0.90449474  0.56801824  1
  He  He22  1  0.90449474  0.33647650  0.56150893  1
  He  He23  1  0.77496756  0.84298580  0.93849107  1
  He  He24  1  0.91442872  0.11684374  0.02612076  1
  He  He25  1  0.09072298  0.38830796  0.47387924  1
  He  He26  1  0.11684374  0.09072298  0.70241502  1
  He  He27  1  0.38830796  0.91442872  0.79758498  1
  He  He28  1  0.58557128  0.11169204  0.70241502  1
  He  He29  1  0.40927702  0.38315626  0.79758498  1
  He  He30  1  0.38315626  0.58557128  0.47387924  1
  He  He31  1  0.11169204  0.40927702  0.02612076  1
  He  He32  1  0.08557128  0.88315626  0.97387924  1
  He  He33  1  0.90927702  0.61169204  0.52612076  1
  He  He34  1  0.88315626  0.90927702  0.29758498  1
  He  He35  1  0.61169204  0.08557128  0.20241502  1
  He  He36  1  0.41442872  0.88830796  0.29758498  1
  He  He37  1  0.59072298  0.61684374  0.20241502  1
  He  He38  1  0.61684374  0.41442872  0.52612076  1
  He  He39  1  0.88830796  0.59072298  0.97387924  1
  Li  Li40  1  0.12500000  0.37500000  0.25000000  1
  Li  Li41  1  0.37500000  0.12500000  0.75000000  1
  Li  Li42  1  0.87500000  0.62500000  0.75000000  1
  Li  Li43  1  0.62500000  0.87500000  0.25000000  1
  Li  Li44  1  0.37500000  0.62500000  0.25000000  1
  Li  Li45  1  0.62500000  0.37500000  0.75000000  1
  Li  Li46  1  0.12500000  0.87500000  0.75000000  1
  Li  Li47  1  0.87500000  0.12500000  0.25000000  1
