# generated using pymatgen
data_H13He4Li3
_symmetry_space_group_name_H-M   'P 1'
_cell_length_a   8.95713246
_cell_length_b   8.95713246
_cell_length_c   8.95713246
_cell_angle_alpha   90.00000000
_cell_angle_beta   90.00000000
_cell_angle_gamma   90.00000000
_symmetry_Int_Tables_number   1
_chemical_formula_structural   H13He4Li3
_chemical_formula_sum   'H26 He8 Li6'
_cell_volume   718.63272475
_cell_formula_units_Z   2
loop_
 _symmetry_equiv_pos_site_id
 _symmetry_equiv_pos_as_xyz
  1  'x, y, z'
loop_
 _atom_site_type_symbol
 _atom_site_label
 _atom_site_symmetry_multiplicity
 _atom_site_fract_x
 _atom_site_fract_y
 _atom_site_fract_z
 _atom_site_occupancy
  H  H0  1  0.00000000  0.00000000  0.00000000  1
  H  H1  1  0.50000000  0.50000000  0.50000000  1
  H  H2  1  -0.00000000  0.14490456  0.31008415  1
  H  H3  1  0.00000000  0.85509544  0.31008415  1
  H  H4  1  -0.00000000  0.14490456  0.68991585  1
  H  H5  1  -0.00000000  0.85509544  0.68991585  1
  H  H6  1  0.31008415  -0.00000000  0.14490456  1
  H  H7  1  0.31008415  -0.00000000  0.85509544  1
  H  H8  1  0.68991585  0.00000000  0.14490456  1
  H  H9  1  0.68991585  0.00000000  0.85509544  1
  H  H10  1  0.14490456  0.31008415  0.00000000  1
  H  H11  1  0.85509544  0.31008415  0.00000000  1
  H  H12  1  0.14490456  0.68991585  -0.00000000  1
  H  H13  1  0.85509544  0.68991585  -0.00000000  1
  H  H14  1  0.64490456  0.50000000  0.18991585  1
  H  H15  1  0.35509544  0.50000000  0.18991585  1
  H  H16  1  0.64490456  0.50000000  0.81008415  1
  H  H17  1  0.35509544  0.50000000  0.81008415  1
  H  H18  1  0.50000000  0.81008415  0.35509544  1
  H  H19  1  0.50000000  0.81008415  0.64490456  1
  H  H20  1  0.50000000  0.18991585  0.35509544  1
  H  H21  1  0.50000000  0.18991585  0.64490456  1
  H  H22  1  0.81008415  0.64490456  0.50000000  1
  H  H23  1  0.81008415  0.35509544  0.50000000  1
  H  H24  1  0.18991585  0.64490456  0.50000000  1
  H  H25  1  0.18991585  0.35509544  0.50000000  1
  He  He26  1  0.25000000  0.25000000  0.25000000  1
  He  He27  1  0.75000000  0.75000000  0.25000000  1
  He  He28  1  0.75000000  0.25000000  0.75000000  1
  He  He29  1  0.25000000  0.75000000  0.75000000  1
  He  He30  1  0.75000000  0.75000000  0.75000000  1
  He  He31  1  0.25000000  0.25000000  0.75000000  1
  He  He32  1  0.25000000  0.75000000  0.25000000  1
  He  He33  1  0.75000000  0.25000000  0.25000000  1
  Li  Li34  1  0.25000000  0.00000000  0.50000000  1
  Li  Li35  1  0.75000000  0.00000000  0.50000000  1
  Li  Li36  1  0.50000000  0.25000000  0.00000000  1
  Li  Li37  1  0.50000000  0.75000000  0.00000000  1
  Li  Li38  1  0.00000000  0.50000000  0.25000000  1
  Li  Li39  1  -0.00000000  0.50000000  0.75000000  1
