# generated using pymatgen
data_HHeLi2
_symmetry_space_group_name_H-M   'P 1'
_cell_length_a   5.73046877
_cell_length_b   5.73046877
_cell_length_c   5.64701649
_cell_angle_alpha   78.41977303
_cell_angle_beta   78.41977303
_cell_angle_gamma   101.25420063
_symmetry_Int_Tables_number   1
_chemical_formula_structural   HHeLi2
_chemical_formula_sum   'H2 He2 Li4'
_cell_volume   172.52636662
_cell_formula_units_Z   2
loop_
 _symmetry_equiv_pos_site_id
 _symmetry_equiv_pos_as_xyz
  1  'x, y, z'
loop_
 _atom_site_type_symbol
 _atom_site_label
 _atom_site_symmetry_multiplicity
 _atom_site_fract_x
 _atom_site_fract_y
 _atom_site_fract_z
 _atom_site_occupancy
  H  H0  1  0.49495493  0.94579763  0.57351843  1
  H  H1  1  0.94579763  0.49495493  0.57351843  1
  He  He2  1  0.87289967  0.87289967  0.00989356  1
  He  He3  1  0.35954478  0.35954478  0.00942663  1
  Li  Li4  1  0.03768177  0.03768177  0.46541107  1
  Li  Li5  1  0.44875460  0.44875460  0.47803472  1
  Li  Li6  1  0.82961690  0.34174972  0.12709858  1
  Li  Li7  1  0.34174972  0.82961690  0.12709858  1
