# generated using pymatgen
data_H2He3
_symmetry_space_group_name_H-M   'P 1'
_cell_length_a   4.29322437
_cell_length_b   4.29295932
_cell_length_c   6.75763139
_cell_angle_alpha   89.99932956
_cell_angle_beta   90.00000000
_cell_angle_gamma   120.00204239
_symmetry_Int_Tables_number   1
_chemical_formula_structural   H2He3
_chemical_formula_sum   'H2 He3'
_cell_volume   107.85904022
_cell_formula_units_Z   1
loop_
 _symmetry_equiv_pos_site_id
 _symmetry_equiv_pos_as_xyz
  1  'x, y, z'
loop_
 _atom_site_type_symbol
 _atom_site_label
 _atom_site_symmetry_multiplicity
 _atom_site_fract_x
 _atom_site_fract_y
 _atom_site_fract_z
 _atom_site_occupancy
  H  H0  1  0.66661948  0.33333611  0.23065509  1
  H  H1  1  0.33328337  0.66666389  0.76934491  1
  He  He2  1  0.99998844  0.00000000  0.00000000  1
  He  He3  1  0.66663018  0.33335165  0.64095882  1
  He  He4  1  0.33327853  0.66664835  0.35904118  1
