# generated using pymatgen
data_H4He6Li
_symmetry_space_group_name_H-M   'P 1'
_cell_length_a   7.27350198
_cell_length_b   7.27289675
_cell_length_c   3.77198481
_cell_angle_alpha   90.00000000
_cell_angle_beta   90.00000000
_cell_angle_gamma   120.00275285
_symmetry_Int_Tables_number   1
_chemical_formula_structural   H4He6Li
_chemical_formula_sum   'H4 He6 Li1'
_cell_volume   172.79831471
_cell_formula_units_Z   1
loop_
 _symmetry_equiv_pos_site_id
 _symmetry_equiv_pos_as_xyz
  1  'x, y, z'
loop_
 _atom_site_type_symbol
 _atom_site_label
 _atom_site_symmetry_multiplicity
 _atom_site_fract_x
 _atom_site_fract_y
 _atom_site_fract_z
 _atom_site_occupancy
  H  H0  1  0.66667586  0.33335173  0.00000000  1
  H  H1  1  0.18898661  0.37797323  0.50000000  1
  H  H2  1  0.62202684  0.81100937  0.50000000  1
  H  H3  1  0.18898253  0.81100937  0.50000000  1
  He  He4  1  0.46544368  0.93088735  0.00000000  1
  He  He5  1  0.06912007  0.53456950  0.00000000  1
  He  He6  1  0.46544943  0.53456950  0.00000000  1
  He  He7  1  0.80058266  0.60116533  0.50000000  1
  He  He8  1  0.39882949  0.19942614  0.50000000  1
  He  He9  1  0.80059666  0.19942614  0.50000000  1
  Li  Li10  1  0.00000617  0.00001233  0.00000000  1
