# generated using pymatgen
data_HHeLiBe
_symmetry_space_group_name_H-M   'P 1'
_cell_length_a   4.47075022
_cell_length_b   7.48047299
_cell_length_c   9.35098960
_cell_angle_alpha   90.00000000
_cell_angle_beta   90.00000000
_cell_angle_gamma   90.00000000
_symmetry_Int_Tables_number   1
_chemical_formula_structural   HHeLiBe
_chemical_formula_sum   'H4 He4 Li4 Be4'
_cell_volume   312.72819652
_cell_formula_units_Z   4
loop_
 _symmetry_equiv_pos_site_id
 _symmetry_equiv_pos_as_xyz
  1  'x, y, z'
loop_
 _atom_site_type_symbol
 _atom_site_label
 _atom_site_symmetry_multiplicity
 _atom_site_fract_x
 _atom_site_fract_y
 _atom_site_fract_z
 _atom_site_occupancy
  H  H0  1  0.25000000  0.19121426  0.88842564  1
  H  H1  1  0.75000000  0.30878574  0.38842564  1
  H  H2  1  0.75000000  0.80878574  0.11157436  1
  H  H3  1  0.25000000  0.69121426  0.61157436  1
  He  He4  1  0.75000000  0.01986838  0.66452223  1
  He  He5  1  0.25000000  0.48013162  0.16452223  1
  He  He6  1  0.25000000  0.98013162  0.33547777  1
  He  He7  1  0.75000000  0.51986838  0.83547777  1
  Li  Li8  1  0.25000000  0.21898934  0.56895356  1
  Li  Li9  1  0.75000000  0.28101066  0.06895356  1
  Li  Li10  1  0.75000000  0.78101066  0.43104644  1
  Li  Li11  1  0.25000000  0.71898934  0.93104644  1
  Be  Be12  1  0.25000000  0.34765289  0.55308660  1
  Be  Be13  1  0.75000000  0.15234711  0.05308660  1
  Be  Be14  1  0.75000000  0.65234711  0.44691340  1
  Be  Be15  1  0.25000000  0.84765289  0.94691340  1
