# generated using pymatgen
data_HHe4Li
_symmetry_space_group_name_H-M   'P 1'
_cell_length_a   4.86221419
_cell_length_b   4.86221419
_cell_length_c   6.88306249
_cell_angle_alpha   90.00000000
_cell_angle_beta   90.00000000
_cell_angle_gamma   112.83745440
_symmetry_Int_Tables_number   1
_chemical_formula_structural   HHe4Li
_chemical_formula_sum   'H2 He8 Li2'
_cell_volume   149.96740997
_cell_formula_units_Z   2
loop_
 _symmetry_equiv_pos_site_id
 _symmetry_equiv_pos_as_xyz
  1  'x, y, z'
loop_
 _atom_site_type_symbol
 _atom_site_label
 _atom_site_symmetry_multiplicity
 _atom_site_fract_x
 _atom_site_fract_y
 _atom_site_fract_z
 _atom_site_occupancy
  H  H0  1  -0.00000000  -0.00000000  0.00000000  1
  H  H1  1  -0.00000000  -0.00000000  0.50000000  1
  He  He2  1  0.22623512  0.29529978  0.25000000  1
  He  He3  1  0.77376488  0.70470022  0.75000000  1
  He  He4  1  0.70470022  0.77376488  0.25000000  1
  He  He5  1  0.29529978  0.22623512  0.75000000  1
  He  He6  1  0.25250468  0.74749532  0.06124493  1
  He  He7  1  0.74749532  0.25250468  0.56124493  1
  He  He8  1  0.25250468  0.74749532  0.43875507  1
  He  He9  1  0.74749532  0.25250468  0.93875507  1
  Li  Li10  1  0.35141528  0.64858472  0.25000000  1
  Li  Li11  1  0.64858472  0.35141528  0.75000000  1
