# generated using pymatgen
data_H3He4LiBe12
_symmetry_space_group_name_H-M   'P 1'
_cell_length_a   5.97890372
_cell_length_b   5.97890372
_cell_length_c   11.27214556
_cell_angle_alpha   81.68790770
_cell_angle_beta   81.68790770
_cell_angle_gamma   104.21556972
_symmetry_Int_Tables_number   1
_chemical_formula_structural   H3He4LiBe12
_chemical_formula_sum   'H6 He8 Li2 Be24'
_cell_volume   379.63504956
_cell_formula_units_Z   2
loop_
 _symmetry_equiv_pos_site_id
 _symmetry_equiv_pos_as_xyz
  1  'x, y, z'
loop_
 _atom_site_type_symbol
 _atom_site_label
 _atom_site_symmetry_multiplicity
 _atom_site_fract_x
 _atom_site_fract_y
 _atom_site_fract_z
 _atom_site_occupancy
  H  H0  1  0.19529865  0.69430901  0.52826052  1
  H  H1  1  0.30569099  0.80470135  0.97173948  1
  H  H2  1  0.80470135  0.30569099  0.47173948  1
  H  H3  1  0.69430901  0.19529865  0.02826052  1
  H  H4  1  0.58868155  0.41131845  0.25000000  1
  H  H5  1  0.41131845  0.58868155  0.75000000  1
  He  He6  1  0.12134814  0.49284500  0.22210337  1
  He  He7  1  0.50715500  0.87865186  0.27789663  1
  He  He8  1  0.87865186  0.50715500  0.77789663  1
  He  He9  1  0.49284500  0.12134814  0.72210337  1
  He  He10  1  0.22306716  0.28070846  0.99408602  1
  He  He11  1  0.71929154  0.77693284  0.50591398  1
  He  He12  1  0.77693284  0.71929154  0.00591398  1
  He  He13  1  0.28070846  0.22306716  0.49408602  1
  Li  Li14  1  0.03591806  0.96408194  0.25000000  1
  Li  Li15  1  0.96408194  0.03591806  0.75000000  1
  Be  Be16  1  0.27065998  0.35612331  0.24221307  1
  Be  Be17  1  0.64387669  0.72934002  0.25778693  1
  Be  Be18  1  0.72934002  0.64387669  0.75778693  1
  Be  Be19  1  0.35612331  0.27065998  0.74221307  1
  Be  Be20  1  0.18010435  0.69549582  0.13701074  1
  Be  Be21  1  0.30450418  0.81989565  0.36298926  1
  Be  Be22  1  0.81989565  0.30450418  0.86298926  1
  Be  Be23  1  0.69549582  0.18010435  0.63701074  1
  Be  Be24  1  0.99714833  0.19445899  0.06074644  1
  Be  Be25  1  0.80554101  0.00285167  0.43925356  1
  Be  Be26  1  0.00285167  0.80554101  0.93925356  1
  Be  Be27  1  0.19445899  0.99714833  0.56074644  1
  Be  Be28  1  0.69720472  0.49308068  0.07444465  1
  Be  Be29  1  0.50691932  0.30279528  0.42555535  1
  Be  Be30  1  0.30279528  0.50691932  0.92555535  1
  Be  Be31  1  0.49308068  0.69720472  0.57444465  1
  Be  Be32  1  0.36900472  0.13060067  0.00344983  1
  Be  Be33  1  0.86939933  0.63099528  0.49655017  1
  Be  Be34  1  0.63099528  0.86939933  0.99655017  1
  Be  Be35  1  0.13060067  0.36900472  0.50344983  1
  Be  Be36  1  0.89670071  0.42277517  0.29483927  1
  Be  Be37  1  0.57722483  0.10329929  0.20516073  1
  Be  Be38  1  0.10329929  0.57722483  0.70516073  1
  Be  Be39  1  0.42277517  0.89670071  0.79483927  1
