# generated using pymatgen
data_H4He6Li
_symmetry_space_group_name_H-M   'P 1'
_cell_length_a   6.98763306
_cell_length_b   6.98763306
_cell_length_c   6.98763306
_cell_angle_alpha   120.31362696
_cell_angle_beta   120.31362696
_cell_angle_gamma   89.45763514
_symmetry_Int_Tables_number   1
_chemical_formula_structural   H4He6Li
_chemical_formula_sum   'H4 He6 Li1'
_cell_volume   240.09909862
_cell_formula_units_Z   1
loop_
 _symmetry_equiv_pos_site_id
 _symmetry_equiv_pos_as_xyz
  1  'x, y, z'
loop_
 _atom_site_type_symbol
 _atom_site_label
 _atom_site_symmetry_multiplicity
 _atom_site_fract_x
 _atom_site_fract_y
 _atom_site_fract_z
 _atom_site_occupancy
  H  H0  1  0.60103837  0.60103837  0.35164926  1
  H  H1  1  0.24938911  0.24938911  0.64835074  1
  H  H2  1  0.75061089  0.39896163  0.00000000  1
  H  H3  1  0.39896163  0.75061089  0.00000000  1
  He  He4  1  0.87968668  0.87968668  0.34477953  1
  He  He5  1  0.53490715  0.53490715  0.65522047  1
  He  He6  1  0.46509285  0.12031332  0.00000000  1
  He  He7  1  0.12031332  0.46509285  0.00000000  1
  He  He8  1  -0.00000000  0.50000000  0.50000000  1
  He  He9  1  0.50000000  -0.00000000  0.50000000  1
  Li  Li10  1  0.00000000  -0.00000000  -0.00000000  1
