# generated using pymatgen
data_H2He7Li4
_symmetry_space_group_name_H-M   'P 1'
_cell_length_a   6.63607321
_cell_length_b   6.63607321
_cell_length_c   17.79981311
_cell_angle_alpha   86.78566200
_cell_angle_beta   86.78566200
_cell_angle_gamma   75.06003399
_symmetry_Int_Tables_number   1
_chemical_formula_structural   H2He7Li4
_chemical_formula_sum   'H4 He14 Li8'
_cell_volume   755.46605236
_cell_formula_units_Z   2
loop_
 _symmetry_equiv_pos_site_id
 _symmetry_equiv_pos_as_xyz
  1  'x, y, z'
loop_
 _atom_site_type_symbol
 _atom_site_label
 _atom_site_symmetry_multiplicity
 _atom_site_fract_x
 _atom_site_fract_y
 _atom_site_fract_z
 _atom_site_occupancy
  H  H0  1  0.44816236  0.21317198  0.20433977  1
  H  H1  1  0.78682802  0.55183764  0.29566023  1
  H  H2  1  0.55183764  0.78682802  0.79566023  1
  H  H3  1  0.21317198  0.44816236  0.70433977  1
  He  He4  1  0.68142549  0.27107504  0.03902626  1
  He  He5  1  0.72892496  0.31857451  0.46097374  1
  He  He6  1  0.31857451  0.72892496  0.96097374  1
  He  He7  1  0.27107504  0.68142549  0.53902626  1
  He  He8  1  0.48708096  0.73373457  0.15650044  1
  He  He9  1  0.26626543  0.51291904  0.34349956  1
  He  He10  1  0.51291904  0.26626543  0.84349956  1
  He  He11  1  0.73373457  0.48708096  0.65650044  1
  He  He12  1  0.02528901  0.52363543  0.12718804  1
  He  He13  1  0.47636457  0.97471099  0.37281196  1
  He  He14  1  0.97471099  0.47636457  0.87281196  1
  He  He15  1  0.52363543  0.02528901  0.62718804  1
  He  He16  1  0.99844044  0.00155956  0.25000000  1
  He  He17  1  0.00155956  0.99844044  0.75000000  1
  Li  Li18  1  0.11917591  0.85936272  0.11881647  1
  Li  Li19  1  0.14063728  0.88082409  0.38118353  1
  Li  Li20  1  0.88082409  0.14063728  0.88118353  1
  Li  Li21  1  0.85936272  0.11917591  0.61881647  1
  Li  Li22  1  0.36365664  0.30640854  0.46645793  1
  Li  Li23  1  0.69359146  0.63634336  0.03354207  1
  Li  Li24  1  0.63634336  0.69359146  0.53354207  1
  Li  Li25  1  0.30640854  0.36365664  0.96645793  1
