# generated using pymatgen
data_HHe6Li2
_symmetry_space_group_name_H-M   'P 1'
_cell_length_a   8.42568941
_cell_length_b   8.42568941
_cell_length_c   3.88606598
_cell_angle_alpha   90.00000000
_cell_angle_beta   90.00000000
_cell_angle_gamma   120.00974864
_symmetry_Int_Tables_number   1
_chemical_formula_structural   HHe6Li2
_chemical_formula_sum   'H1 He6 Li2'
_cell_volume   238.89607925
_cell_formula_units_Z   1
loop_
 _symmetry_equiv_pos_site_id
 _symmetry_equiv_pos_as_xyz
  1  'x, y, z'
loop_
 _atom_site_type_symbol
 _atom_site_label
 _atom_site_symmetry_multiplicity
 _atom_site_fract_x
 _atom_site_fract_y
 _atom_site_fract_z
 _atom_site_occupancy
  H  H0  1  0.00022493  0.00022493  0.50000000  1
  He  He1  1  0.59432970  0.00002456  0.50000000  1
  He  He2  1  0.00002456  0.59432970  0.50000000  1
  He  He3  1  0.40557938  0.40557938  0.50000000  1
  He  He4  1  0.23392138  0.99993446  0.00000000  1
  He  He5  1  0.99993446  0.23392138  0.00000000  1
  He  He6  1  0.76599637  0.76599637  0.00000000  1
  Li  Li7  1  0.33333482  0.66665440  0.00000000  1
  Li  Li8  1  0.66665440  0.33333482  0.00000000  1
