# generated using pymatgen
data_H11He3
_symmetry_space_group_name_H-M   'P 1'
_cell_length_a   9.48898501
_cell_length_b   9.48898501
_cell_length_c   9.48898501
_cell_angle_alpha   149.60349249
_cell_angle_beta   106.24536871
_cell_angle_gamma   81.81927666
_symmetry_Int_Tables_number   1
_chemical_formula_structural   H11He3
_chemical_formula_sum   'H11 He3'
_cell_volume   406.33650493
_cell_formula_units_Z   1
loop_
 _symmetry_equiv_pos_site_id
 _symmetry_equiv_pos_as_xyz
  1  'x, y, z'
loop_
 _atom_site_type_symbol
 _atom_site_label
 _atom_site_symmetry_multiplicity
 _atom_site_fract_x
 _atom_site_fract_y
 _atom_site_fract_z
 _atom_site_occupancy
  H  H0  1  0.50000000  0.00000000  0.50000000  1
  H  H1  1  0.30626763  0.50000000  0.80626763  1
  H  H2  1  0.69373237  0.50000000  0.19373237  1
  H  H3  1  0.28434959  0.65719887  0.62715072  1
  H  H4  1  0.96995185  0.34280113  0.62715072  1
  H  H5  1  0.03004815  0.65719887  0.37284928  1
  H  H6  1  0.71565041  0.34280113  0.37284928  1
  H  H7  1  0.57744920  0.85327272  0.72417648  1
  H  H8  1  0.87090376  0.14672728  0.72417648  1
  H  H9  1  0.12909624  0.85327272  0.27582352  1
  H  H10  1  0.42255080  0.14672728  0.27582352  1
  He  He11  1  0.00000000  -0.00000000  -0.00000000  1
  He  He12  1  0.69053051  0.69053051  0.00000000  1
  He  He13  1  0.30946949  0.30946949  -0.00000000  1
