# generated using pymatgen
data_HHeLi2
_symmetry_space_group_name_H-M   'P 1'
_cell_length_a   3.23820484
_cell_length_b   3.23820484
_cell_length_c   13.94870852
_cell_angle_alpha   90.00000000
_cell_angle_beta   90.00000000
_cell_angle_gamma   119.99962628
_symmetry_Int_Tables_number   1
_chemical_formula_structural   HHeLi2
_chemical_formula_sum   'H2 He2 Li4'
_cell_volume   126.67033015
_cell_formula_units_Z   2
loop_
 _symmetry_equiv_pos_site_id
 _symmetry_equiv_pos_as_xyz
  1  'x, y, z'
loop_
 _atom_site_type_symbol
 _atom_site_label
 _atom_site_symmetry_multiplicity
 _atom_site_fract_x
 _atom_site_fract_y
 _atom_site_fract_z
 _atom_site_occupancy
  H  H0  1  0.00000000  0.00000000  0.00000000  1
  H  H1  1  0.00000000  0.00000000  0.50000000  1
  He  He2  1  0.33331320  0.66668680  0.75000000  1
  He  He3  1  0.66668680  0.33331320  0.25000000  1
  Li  Li4  1  0.33332941  0.66667059  0.08077051  1
  Li  Li5  1  0.66667059  0.33332941  0.58077051  1
  Li  Li6  1  0.66667059  0.33332941  0.91922949  1
  Li  Li7  1  0.33332941  0.66667059  0.41922949  1
