# generated using pymatgen
data_H2He3
_symmetry_space_group_name_H-M   'P 1'
_cell_length_a   3.98781320
_cell_length_b   3.98750648
_cell_length_c   6.24566880
_cell_angle_alpha   89.99670029
_cell_angle_beta   90.00000000
_cell_angle_gamma   120.00254461
_symmetry_Int_Tables_number   1
_chemical_formula_structural   H2He3
_chemical_formula_sum   'H2 He3'
_cell_volume   86.00716906
_cell_formula_units_Z   1
loop_
 _symmetry_equiv_pos_site_id
 _symmetry_equiv_pos_as_xyz
  1  'x, y, z'
loop_
 _atom_site_type_symbol
 _atom_site_label
 _atom_site_symmetry_multiplicity
 _atom_site_fract_x
 _atom_site_fract_y
 _atom_site_fract_z
 _atom_site_occupancy
  H  H0  1  0.66668201  0.33336403  0.24757041  1
  H  H1  1  0.33331799  0.66663597  0.75242959  1
  He  He2  1  -0.00000000  0.00000000  -0.00000000  1
  He  He3  1  0.66667622  0.33335245  0.64523575  1
  He  He4  1  0.33332378  0.66664755  0.35476425  1
