# generated using pymatgen
data_H2He4Li
_symmetry_space_group_name_H-M   'P 1'
_cell_length_a   9.56902690
_cell_length_b   8.02712441
_cell_length_c   5.89630797
_cell_angle_alpha   85.37376464
_cell_angle_beta   56.73392549
_cell_angle_gamma   37.89230987
_symmetry_Int_Tables_number   1
_chemical_formula_structural   H2He4Li
_chemical_formula_sum   'H4 He8 Li2'
_cell_volume   169.25368520
_cell_formula_units_Z   2
loop_
 _symmetry_equiv_pos_site_id
 _symmetry_equiv_pos_as_xyz
  1  'x, y, z'
loop_
 _atom_site_type_symbol
 _atom_site_label
 _atom_site_symmetry_multiplicity
 _atom_site_fract_x
 _atom_site_fract_y
 _atom_site_fract_z
 _atom_site_occupancy
  H  H0  1  0.56353946  0.56353946  0.18646054  1
  H  H1  1  0.18646054  0.18646054  0.56353946  1
  H  H2  1  0.43646054  0.43646054  0.81353946  1
  H  H3  1  0.81353946  0.81353946  0.43646054  1
  He  He4  1  0.68418765  0.95042127  0.22110832  1
  He  He5  1  0.22110832  0.64428276  0.68418765  1
  He  He6  1  0.95042127  0.68418765  0.64428276  1
  He  He7  1  0.64428276  0.22110832  0.95042127  1
  He  He8  1  0.31581235  0.04957873  0.77889168  1
  He  He9  1  0.77889168  0.35571724  0.31581235  1
  He  He10  1  0.04957873  0.31581235  0.35571724  1
  He  He11  1  0.35571724  0.77889168  0.04957873  1
  Li  Li12  1  0.87500000  0.87500000  0.87500000  1
  Li  Li13  1  0.12500000  0.12500000  0.12500000  1
