# generated using pymatgen
data_HHeLi
_symmetry_space_group_name_H-M   'P 1'
_cell_length_a   9.91881954
_cell_length_b   9.91881954
_cell_length_c   9.91881954
_cell_angle_alpha   21.19355953
_cell_angle_beta   21.19355953
_cell_angle_gamma   21.19355953
_symmetry_Int_Tables_number   1
_chemical_formula_structural   HHeLi
_chemical_formula_sum   'H2 He2 Li2'
_cell_volume   111.71121898
_cell_formula_units_Z   2
loop_
 _symmetry_equiv_pos_site_id
 _symmetry_equiv_pos_as_xyz
  1  'x, y, z'
loop_
 _atom_site_type_symbol
 _atom_site_label
 _atom_site_symmetry_multiplicity
 _atom_site_fract_x
 _atom_site_fract_y
 _atom_site_fract_z
 _atom_site_occupancy
  H  H0  1  0.60765679  0.60765679  0.60765679  1
  H  H1  1  0.39234321  0.39234321  0.39234321  1
  He  He2  1  0.86315366  0.86315366  0.86315366  1
  He  He3  1  0.13684634  0.13684634  0.13684634  1
  Li  Li4  1  0.78802190  0.78802190  0.78802190  1
  Li  Li5  1  0.21197810  0.21197810  0.21197810  1
