# generated using pymatgen
data_H2HeLi6
_symmetry_space_group_name_H-M   'P 1'
_cell_length_a   10.08241233
_cell_length_b   10.08241233
_cell_length_c   5.47650389
_cell_angle_alpha   74.98992553
_cell_angle_beta   74.98992553
_cell_angle_gamma   68.28588756
_symmetry_Int_Tables_number   1
_chemical_formula_structural   H2HeLi6
_chemical_formula_sum   'H8 He4 Li24'
_cell_volume   491.23522657
_cell_formula_units_Z   4
loop_
 _symmetry_equiv_pos_site_id
 _symmetry_equiv_pos_as_xyz
  1  'x, y, z'
loop_
 _atom_site_type_symbol
 _atom_site_label
 _atom_site_symmetry_multiplicity
 _atom_site_fract_x
 _atom_site_fract_y
 _atom_site_fract_z
 _atom_site_occupancy
  H  H0  1  0.60820738  0.39179262  0.75000000  1
  H  H1  1  0.39179262  0.60820738  0.25000000  1
  H  H2  1  0.13556531  0.86443469  0.75000000  1
  H  H3  1  0.86443469  0.13556531  0.25000000  1
  H  H4  1  0.78513090  0.55272456  0.12078592  1
  H  H5  1  0.44727544  0.21486910  0.37921408  1
  H  H6  1  0.21486910  0.44727544  0.87921408  1
  H  H7  1  0.55272456  0.78513090  0.62078592  1
  He  He8  1  0.98840762  0.70379553  0.43989898  1
  He  He9  1  0.29620447  0.01159238  0.06010102  1
  He  He10  1  0.01159238  0.29620447  0.56010102  1
  He  He11  1  0.70379553  0.98840762  0.93989898  1
  Li  Li12  1  0.81983809  0.71225725  0.36257294  1
  Li  Li13  1  0.28774275  0.18016191  0.13742706  1
  Li  Li14  1  0.18016191  0.28774275  0.63742706  1
  Li  Li15  1  0.71225725  0.81983809  0.86257294  1
  Li  Li16  1  0.95355643  0.88649934  0.48389406  1
  Li  Li17  1  0.11350066  0.04644357  0.01610594  1
  Li  Li18  1  0.04644357  0.11350066  0.51610594  1
  Li  Li19  1  0.88649934  0.95355643  0.98389406  1
  Li  Li20  1  0.97516299  0.56923521  0.73940948  1
  Li  Li21  1  0.43076479  0.02483701  0.76059052  1
  Li  Li22  1  0.02483701  0.43076479  0.26059052  1
  Li  Li23  1  0.56923521  0.97516299  0.23940948  1
  Li  Li24  1  0.11506086  0.67345160  0.13502260  1
  Li  Li25  1  0.32654840  0.88493914  0.36497740  1
  Li  Li26  1  0.88493914  0.32654840  0.86497740  1
  Li  Li27  1  0.67345160  0.11506086  0.63502260  1
  Li  Li28  1  0.19137283  0.66277344  0.58515566  1
  Li  Li29  1  0.33722656  0.80862717  0.91484434  1
  Li  Li30  1  0.80862717  0.33722656  0.41484434  1
  Li  Li31  1  0.66277344  0.19137283  0.08515566  1
  Li  Li32  1  0.42554411  0.39053243  0.57833365  1
  Li  Li33  1  0.60946757  0.57445589  0.92166635  1
  Li  Li34  1  0.57445589  0.60946757  0.42166635  1
  Li  Li35  1  0.39053243  0.42554411  0.07833365  1
