# generated using pymatgen
data_HHe5Li2
_symmetry_space_group_name_H-M   'P 1'
_cell_length_a   12.64639057
_cell_length_b   4.26182337
_cell_length_c   6.98575860
_cell_angle_alpha   79.26802056
_cell_angle_beta   90.00000000
_cell_angle_gamma   90.00000000
_symmetry_Int_Tables_number   1
_chemical_formula_structural   HHe5Li2
_chemical_formula_sum   'H4 He20 Li8'
_cell_volume   369.92369841
_cell_formula_units_Z   4
loop_
 _symmetry_equiv_pos_site_id
 _symmetry_equiv_pos_as_xyz
  1  'x, y, z'
loop_
 _atom_site_type_symbol
 _atom_site_label
 _atom_site_symmetry_multiplicity
 _atom_site_fract_x
 _atom_site_fract_y
 _atom_site_fract_z
 _atom_site_occupancy
  H  H0  1  0.33105068  0.97727897  0.16008646  1
  H  H1  1  0.83105068  0.02272103  0.33991354  1
  H  H2  1  0.66894932  0.02272103  0.83991354  1
  H  H3  1  0.16894932  0.97727897  0.66008646  1
  He  He4  1  0.09843165  0.57019996  0.16537390  1
  He  He5  1  0.59843165  0.42980004  0.33462610  1
  He  He6  1  0.90156835  0.42980004  0.83462610  1
  He  He7  1  0.40156835  0.57019996  0.66537390  1
  He  He8  1  0.19183035  0.30913250  0.08032808  1
  He  He9  1  0.69183035  0.69086750  0.41967192  1
  He  He10  1  0.80816965  0.69086750  0.91967192  1
  He  He11  1  0.30816965  0.30913250  0.58032808  1
  He  He12  1  0.14788244  0.61224862  0.92247441  1
  He  He13  1  0.64788244  0.38775138  0.57752559  1
  He  He14  1  0.85211756  0.38775138  0.07752559  1
  He  He15  1  0.35211756  0.61224862  0.42247441  1
  He  He16  1  0.98721074  0.78133718  0.29976676  1
  He  He17  1  0.48721074  0.21866282  0.20023324  1
  He  He18  1  0.01278926  0.21866282  0.70023324  1
  He  He19  1  0.51278926  0.78133718  0.79976676  1
  He  He20  1  0.10228184  0.77235272  0.40052645  1
  He  He21  1  0.60228184  0.22764728  0.09947355  1
  He  He22  1  0.89771816  0.22764728  0.59947355  1
  He  He23  1  0.39771816  0.77235272  0.90052645  1
  Li  Li24  1  0.12870986  0.44871302  0.04127891  1
  Li  Li25  1  0.62870986  0.55128698  0.45872109  1
  Li  Li26  1  0.87129014  0.55128698  0.95872109  1
  Li  Li27  1  0.37129014  0.44871302  0.54127891  1
  Li  Li28  1  0.05877357  0.68331083  0.30521224  1
  Li  Li29  1  0.55877357  0.31668917  0.19478776  1
  Li  Li30  1  0.94122643  0.31668917  0.69478776  1
  Li  Li31  1  0.44122643  0.68331083  0.80521224  1
