# generated using pymatgen
data_H4He2Li
_symmetry_space_group_name_H-M   'P 1'
_cell_length_a   7.82397583
_cell_length_b   10.01823845
_cell_length_c   14.13499435
_cell_angle_alpha   90.00000000
_cell_angle_beta   89.99587109
_cell_angle_gamma   90.00000000
_symmetry_Int_Tables_number   1
_chemical_formula_structural   H4He2Li
_chemical_formula_sum   'H16 He8 Li4'
_cell_volume   1107.93556332
_cell_formula_units_Z   4
loop_
 _symmetry_equiv_pos_site_id
 _symmetry_equiv_pos_as_xyz
  1  'x, y, z'
loop_
 _atom_site_type_symbol
 _atom_site_label
 _atom_site_symmetry_multiplicity
 _atom_site_fract_x
 _atom_site_fract_y
 _atom_site_fract_z
 _atom_site_occupancy
  H  H0  1  0.50884217  0.93194737  0.40880957  1
  H  H1  1  0.99118644  0.06805126  0.90881229  1
  H  H2  1  0.49115783  0.43194737  0.09119043  1
  H  H3  1  0.00881356  0.56805126  0.59118771  1
  H  H4  1  0.54424067  0.28423430  0.57634511  1
  H  H5  1  0.95575956  0.71576599  0.07634416  1
  H  H6  1  0.45575933  0.78423430  0.92365489  1
  H  H7  1  0.04424044  0.21576599  0.42365584  1
  H  H8  1  0.76520109  0.91817574  0.64917684  1
  H  H9  1  0.73479829  0.08181440  0.14918024  1
  H  H10  1  0.23479891  0.41817574  0.85082316  1
  H  H11  1  0.26520171  0.58181440  0.35081976  1
  H  H12  1  0.24530247  0.93407223  0.64925269  1
  H  H13  1  0.25469288  0.06592194  0.14925666  1
  H  H14  1  0.75469753  0.43407223  0.85074731  1
  H  H15  1  0.74530712  0.56592194  0.35074334  1
  He  He16  1  0.98787569  0.23468969  0.68175379  1
  He  He17  1  0.51211687  0.76531212  0.18175068  1
  He  He18  1  0.01212431  0.73468969  0.81824621  1
  He  He19  1  0.48788313  0.26531212  0.31824932  1
  He  He20  1  0.99050792  0.36779601  0.06581482  1
  He  He21  1  0.50950141  0.63221242  0.56581250  1
  He  He22  1  0.00949208  0.86779601  0.43418518  1
  He  He23  1  0.49049859  0.13221242  0.93418750  1
  Li  Li24  1  0.99209373  0.96268201  0.07543977  1
  Li  Li25  1  0.50792878  0.03732452  0.57542471  1
  Li  Li26  1  0.00790627  0.46268201  0.42456023  1
  Li  Li27  1  0.49207122  0.53732452  0.92457529  1
