# generated using pymatgen
data_HHe(Li3Be)2
_symmetry_space_group_name_H-M   'P 1'
_cell_length_a   6.45248124
_cell_length_b   6.45248124
_cell_length_c   5.28965553
_cell_angle_alpha   76.93773162
_cell_angle_beta   76.93773162
_cell_angle_gamma   84.35137702
_symmetry_Int_Tables_number   1
_chemical_formula_structural   HHe(Li3Be)2
_chemical_formula_sum   'H2 He2 Li12 Be4'
_cell_volume   208.72237340
_cell_formula_units_Z   2
loop_
 _symmetry_equiv_pos_site_id
 _symmetry_equiv_pos_as_xyz
  1  'x, y, z'
loop_
 _atom_site_type_symbol
 _atom_site_label
 _atom_site_symmetry_multiplicity
 _atom_site_fract_x
 _atom_site_fract_y
 _atom_site_fract_z
 _atom_site_occupancy
  H  H0  1  0.90468954  0.09531046  0.75000000  1
  H  H1  1  0.09531046  0.90468954  0.25000000  1
  He  He2  1  0.30026774  0.69973226  0.75000000  1
  He  He3  1  0.69973226  0.30026774  0.25000000  1
  Li  Li4  1  0.18460712  0.03310691  0.87341017  1
  Li  Li5  1  0.96689309  0.81539288  0.62658983  1
  Li  Li6  1  0.81539288  0.96689309  0.12658983  1
  Li  Li7  1  0.03310691  0.18460712  0.37341017  1
  Li  Li8  1  0.62403266  0.09984406  0.70758049  1
  Li  Li9  1  0.90015594  0.37596734  0.79241951  1
  Li  Li10  1  0.37596734  0.90015594  0.29241951  1
  Li  Li11  1  0.09984406  0.62403266  0.20758049  1
  Li  Li12  1  0.35902070  0.34586525  0.99497247  1
  Li  Li13  1  0.65413475  0.64097930  0.50502753  1
  Li  Li14  1  0.64097930  0.65413475  0.00502753  1
  Li  Li15  1  0.34586525  0.35902070  0.49497247  1
  Be  Be16  1  0.38305822  0.19659557  0.77406613  1
  Be  Be17  1  0.80340443  0.61694178  0.72593387  1
  Be  Be18  1  0.61694178  0.80340443  0.22593387  1
  Be  Be19  1  0.19659557  0.38305822  0.27406613  1
