# generated using pymatgen
data_H6HeLi
_symmetry_space_group_name_H-M   'P 1'
_cell_length_a   5.51480335
_cell_length_b   5.51480335
_cell_length_c   5.51480335
_cell_angle_alpha   56.60935682
_cell_angle_beta   56.60935682
_cell_angle_gamma   56.60935682
_symmetry_Int_Tables_number   1
_chemical_formula_structural   H6HeLi
_chemical_formula_sum   'H6 He1 Li1'
_cell_volume   109.30775192
_cell_formula_units_Z   1
loop_
 _symmetry_equiv_pos_site_id
 _symmetry_equiv_pos_as_xyz
  1  'x, y, z'
loop_
 _atom_site_type_symbol
 _atom_site_label
 _atom_site_symmetry_multiplicity
 _atom_site_fract_x
 _atom_site_fract_y
 _atom_site_fract_z
 _atom_site_occupancy
  H  H0  1  0.23867863  0.87645798  0.64458712  1
  H  H1  1  0.64458712  0.23867863  0.87645798  1
  H  H2  1  0.87645798  0.64458712  0.23867863  1
  H  H3  1  0.76132137  0.12354202  0.35541288  1
  H  H4  1  0.35541288  0.76132137  0.12354202  1
  H  H5  1  0.12354202  0.35541288  0.76132137  1
  He  He6  1  0.50000000  0.50000000  0.50000000  1
  Li  Li7  1  0.00000000  0.00000000  -0.00000000  1
