# generated using pymatgen
data_HHe2
_symmetry_space_group_name_H-M   'P 1'
_cell_length_a   4.31381389
_cell_length_b   4.31381389
_cell_length_c   72.67906498
_cell_angle_alpha   90.00191624
_cell_angle_beta   89.99808376
_cell_angle_gamma   120.00090272
_symmetry_Int_Tables_number   1
_chemical_formula_structural   HHe2
_chemical_formula_sum   'H10 He20'
_cell_volume   1171.27485757
_cell_formula_units_Z   10
loop_
 _symmetry_equiv_pos_site_id
 _symmetry_equiv_pos_as_xyz
  1  'x, y, z'
loop_
 _atom_site_type_symbol
 _atom_site_label
 _atom_site_symmetry_multiplicity
 _atom_site_fract_x
 _atom_site_fract_y
 _atom_site_fract_z
 _atom_site_occupancy
  H  H0  1  0.66665743  0.33334257  0.02499726  1
  H  H1  1  0.66665753  0.33334247  0.12500263  1
  H  H2  1  0.66665760  0.33334240  0.22499945  1
  H  H3  1  0.66665766  0.33334234  0.32500422  1
  H  H4  1  0.66665873  0.33334127  0.42497933  1
  H  H5  1  0.99999954  0.00000046  0.52499549  1
  H  H6  1  0.99999949  0.00000051  0.62500046  1
  H  H7  1  0.99999953  0.00000047  0.72500424  1
  H  H8  1  0.99999886  0.00000114  0.82499862  1
  H  H9  1  0.66665770  0.33334230  0.92501429  1
  He  He10  1  0.00001574  0.99998426  0.00126755  1
  He  He11  1  0.33332752  0.66667248  0.04872578  1
  He  He12  1  0.00001585  0.99998415  0.10127032  1
  He  He13  1  0.33332755  0.66667245  0.14873243  1
  He  He14  1  0.00001595  0.99998405  0.20127641  1
  He  He15  1  0.33332742  0.66667258  0.24874066  1
  He  He16  1  0.00001596  0.99998404  0.30128188  1
  He  He17  1  0.33332753  0.66667247  0.34873791  1
  He  He18  1  0.00001684  0.99998316  0.40125838  1
  He  He19  1  0.33332822  0.66667178  0.44870735  1
  He  He20  1  0.66667382  0.33332618  0.50126475  1
  He  He21  1  0.33332537  0.66667463  0.54872819  1
  He  He22  1  0.66667360  0.33332640  0.60126570  1
  He  He23  1  0.33332541  0.66667459  0.64872697  1
  He  He24  1  0.66667363  0.33332637  0.70127533  1
  He  He25  1  0.33332553  0.66667447  0.74873289  1
  He  He26  1  0.66667412  0.33332588  0.80126716  1
  He  He27  1  0.33332248  0.66667752  0.84872249  1
  He  He28  1  0.00001592  0.99998408  0.90128287  1
  He  He29  1  0.33332746  0.66667254  0.94873899  1
