# generated using pymatgen
data_H5HeLi3
_symmetry_space_group_name_H-M   'P 1'
_cell_length_a   7.11888812
_cell_length_b   7.11888812
_cell_length_c   10.83941894
_cell_angle_alpha   90.00000000
_cell_angle_beta   90.00000000
_cell_angle_gamma   90.00000000
_symmetry_Int_Tables_number   1
_chemical_formula_structural   H5HeLi3
_chemical_formula_sum   'H20 He4 Li12'
_cell_volume   549.32623088
_cell_formula_units_Z   4
loop_
 _symmetry_equiv_pos_site_id
 _symmetry_equiv_pos_as_xyz
  1  'x, y, z'
loop_
 _atom_site_type_symbol
 _atom_site_label
 _atom_site_symmetry_multiplicity
 _atom_site_fract_x
 _atom_site_fract_y
 _atom_site_fract_z
 _atom_site_occupancy
  H  H0  1  0.00000000  0.50000000  0.21341004  1
  H  H1  1  0.50000000  0.00000000  0.28658996  1
  H  H2  1  0.50000000  0.00000000  0.78658996  1
  H  H3  1  0.00000000  0.50000000  0.71341004  1
  H  H4  1  0.16615422  0.08136475  0.59219528  1
  H  H5  1  0.83384578  0.91863525  0.59219528  1
  H  H6  1  0.41863525  0.66615422  0.59219528  1
  H  H7  1  0.58136475  0.33384578  0.59219528  1
  H  H8  1  0.33384578  0.58136475  0.90780472  1
  H  H9  1  0.66615422  0.41863525  0.90780472  1
  H  H10  1  0.08136475  0.16615422  0.90780472  1
  H  H11  1  0.91863525  0.83384578  0.90780472  1
  H  H12  1  0.33384578  0.41863525  0.40780472  1
  H  H13  1  0.66615422  0.58136475  0.40780472  1
  H  H14  1  0.08136475  0.83384578  0.40780472  1
  H  H15  1  0.91863525  0.16615422  0.40780472  1
  H  H16  1  0.16615422  0.91863525  0.09219528  1
  H  H17  1  0.83384578  0.08136475  0.09219528  1
  H  H18  1  0.41863525  0.33384578  0.09219528  1
  H  H19  1  0.58136475  0.66615422  0.09219528  1
  He  He20  1  0.00000000  0.00000000  0.50000000  1
  He  He21  1  0.50000000  0.50000000  0.50000000  1
  He  He22  1  0.50000000  0.50000000  0.00000000  1
  He  He23  1  0.00000000  0.00000000  -0.00000000  1
  Li  Li24  1  0.00000000  0.50000000  0.48715045  1
  Li  Li25  1  0.50000000  0.00000000  0.01284955  1
  Li  Li26  1  0.50000000  0.00000000  0.51284955  1
  Li  Li27  1  0.00000000  0.50000000  0.98715045  1
  Li  Li28  1  0.19744297  0.19744297  0.25000000  1
  Li  Li29  1  0.80255703  0.80255703  0.25000000  1
  Li  Li30  1  0.30255703  0.69744297  0.25000000  1
  Li  Li31  1  0.69744297  0.30255703  0.25000000  1
  Li  Li32  1  0.30255703  0.30255703  0.75000000  1
  Li  Li33  1  0.69744297  0.69744297  0.75000000  1
  Li  Li34  1  0.19744297  0.80255703  0.75000000  1
  Li  Li35  1  0.80255703  0.19744297  0.75000000  1
