# generated using pymatgen
data_H4He3
_symmetry_space_group_name_H-M   'P 1'
_cell_length_a   4.57567644
_cell_length_b   5.57763370
_cell_length_c   9.52656841
_cell_angle_alpha   90.00000000
_cell_angle_beta   90.00000000
_cell_angle_gamma   90.00000000
_symmetry_Int_Tables_number   1
_chemical_formula_structural   H4He3
_chemical_formula_sum   'H16 He12'
_cell_volume   243.13181199
_cell_formula_units_Z   4
loop_
 _symmetry_equiv_pos_site_id
 _symmetry_equiv_pos_as_xyz
  1  'x, y, z'
loop_
 _atom_site_type_symbol
 _atom_site_label
 _atom_site_symmetry_multiplicity
 _atom_site_fract_x
 _atom_site_fract_y
 _atom_site_fract_z
 _atom_site_occupancy
  H  H0  1  0.81230036  0.75000000  0.09174913  1
  H  H1  1  0.31230036  0.25000000  0.40825087  1
  H  H2  1  0.18769964  0.25000000  0.90825087  1
  H  H3  1  0.68769964  0.75000000  0.59174913  1
  H  H4  1  0.24279521  0.75000000  0.42903859  1
  H  H5  1  0.74279521  0.25000000  0.07096141  1
  H  H6  1  0.75720479  0.25000000  0.57096141  1
  H  H7  1  0.25720479  0.75000000  0.92903859  1
  H  H8  1  0.25726260  0.99530531  0.16288788  1
  H  H9  1  0.75726260  0.00469469  0.33711212  1
  H  H10  1  0.74273740  0.49530531  0.83711212  1
  H  H11  1  0.24273740  0.50469469  0.66288788  1
  H  H12  1  0.74273740  0.00469469  0.83711212  1
  H  H13  1  0.24273740  0.99530531  0.66288788  1
  H  H14  1  0.25726260  0.50469469  0.16288788  1
  H  H15  1  0.75726260  0.49530531  0.33711212  1
  He  He16  1  0.00000000  0.00000000  0.00000000  1
  He  He17  1  0.50000000  0.00000000  0.50000000  1
  He  He18  1  0.00000000  0.50000000  0.00000000  1
  He  He19  1  0.50000000  0.50000000  0.50000000  1
  He  He20  1  0.99062537  0.75000000  0.27429981  1
  He  He21  1  0.49062537  0.25000000  0.22570019  1
  He  He22  1  0.00937463  0.25000000  0.72570019  1
  He  He23  1  0.50937463  0.75000000  0.77429981  1
  He  He24  1  0.43976827  0.75000000  0.09289159  1
  He  He25  1  0.93976827  0.25000000  0.40710841  1
  He  He26  1  0.56023173  0.25000000  0.90710841  1
  He  He27  1  0.06023173  0.75000000  0.59289159  1
