# generated using pymatgen
data_H3He
_symmetry_space_group_name_H-M   'P 1'
_cell_length_a   11.42807988
_cell_length_b   11.42807988
_cell_length_c   4.52213697
_cell_angle_alpha   90.00000000
_cell_angle_beta   90.00000000
_cell_angle_gamma   157.41472845
_symmetry_Int_Tables_number   1
_chemical_formula_structural   H3He
_chemical_formula_sum   'H6 He2'
_cell_volume   226.82297961
_cell_formula_units_Z   2
loop_
 _symmetry_equiv_pos_site_id
 _symmetry_equiv_pos_as_xyz
  1  'x, y, z'
loop_
 _atom_site_type_symbol
 _atom_site_label
 _atom_site_symmetry_multiplicity
 _atom_site_fract_x
 _atom_site_fract_y
 _atom_site_fract_z
 _atom_site_occupancy
  H  H0  1  0.09914228  0.90085772  0.50000000  1
  H  H1  1  0.73209523  0.26790477  0.50000000  1
  H  H2  1  0.86682352  0.13317648  0.50000000  1
  H  H3  1  0.97586923  0.02413077  0.00000000  1
  H  H4  1  0.36090553  0.63909447  0.00000000  1
  H  H5  1  0.59800495  0.40199505  0.00000000  1
  He  He6  1  0.48232208  0.51767792  0.50000000  1
  He  He7  1  0.21083718  0.78916282  0.00000000  1
