# generated using pymatgen
data_H5He2LiBe10
_symmetry_space_group_name_H-M   'P 1'
_cell_length_a   14.83730768
_cell_length_b   4.47096277
_cell_length_c   6.80384673
_cell_angle_alpha   75.58117247
_cell_angle_beta   90.00000000
_cell_angle_gamma   90.00000000
_symmetry_Int_Tables_number   1
_chemical_formula_structural   H5He2LiBe10
_chemical_formula_sum   'H10 He4 Li2 Be20'
_cell_volume   437.13031439
_cell_formula_units_Z   2
loop_
 _symmetry_equiv_pos_site_id
 _symmetry_equiv_pos_as_xyz
  1  'x, y, z'
loop_
 _atom_site_type_symbol
 _atom_site_label
 _atom_site_symmetry_multiplicity
 _atom_site_fract_x
 _atom_site_fract_y
 _atom_site_fract_z
 _atom_site_occupancy
  H  H0  1  0.25000000  0.23326071  0.00192605  1
  H  H1  1  0.75000000  0.76673929  0.99807395  1
  H  H2  1  0.08065684  0.95093053  0.67858334  1
  H  H3  1  0.58065684  0.04906947  0.32141666  1
  H  H4  1  0.91934316  0.04906947  0.32141666  1
  H  H5  1  0.41934316  0.95093053  0.67858334  1
  H  H6  1  0.33559026  0.43982436  0.67766584  1
  H  H7  1  0.83559026  0.56017564  0.32233416  1
  H  H8  1  0.66440974  0.56017564  0.32233416  1
  H  H9  1  0.16440974  0.43982436  0.67766584  1
  He  He10  1  0.41298160  0.66525274  0.19698159  1
  He  He11  1  0.91298160  0.33474726  0.80301841  1
  He  He12  1  0.58701840  0.33474726  0.80301841  1
  He  He13  1  0.08701840  0.66525274  0.19698159  1
  Li  Li14  1  0.25000000  0.01202862  0.47678513  1
  Li  Li15  1  0.75000000  0.98797138  0.52321487  1
  Be  Be16  1  0.25000000  0.38042386  0.58508012  1
  Be  Be17  1  0.75000000  0.61957614  0.41491988  1
  Be  Be18  1  0.25000000  0.04876009  0.19207544  1
  Be  Be19  1  0.75000000  0.95123991  0.80792456  1
  Be  Be20  1  0.48605173  0.83117242  0.80857320  1
  Be  Be21  1  0.98605173  0.16882758  0.19142680  1
  Be  Be22  1  0.51394827  0.16882758  0.19142680  1
  Be  Be23  1  0.01394827  0.83117242  0.80857320  1
  Be  Be24  1  0.35502670  0.77787064  0.60603740  1
  Be  Be25  1  0.85502670  0.22212936  0.39396260  1
  Be  Be26  1  0.64497330  0.22212936  0.39396260  1
  Be  Be27  1  0.14497330  0.77787064  0.60603740  1
  Be  Be28  1  0.33140848  0.33389824  0.90297752  1
  Be  Be29  1  0.83140848  0.66610176  0.09702248  1
  Be  Be30  1  0.66859152  0.66610176  0.09702248  1
  Be  Be31  1  0.16859152  0.33389824  0.90297752  1
  Be  Be32  1  0.08881493  0.27595634  0.60456891  1
  Be  Be33  1  0.58881493  0.72404366  0.39543109  1
  Be  Be34  1  0.91118507  0.72404366  0.39543109  1
  Be  Be35  1  0.41118507  0.27595634  0.60456891  1
