# generated using pymatgen
data_HHe5LiBe
_symmetry_space_group_name_H-M   'P 1'
_cell_length_a   6.19868921
_cell_length_b   8.65195867
_cell_length_c   10.69235847
_cell_angle_alpha   90.00000000
_cell_angle_beta   90.00000000
_cell_angle_gamma   90.00000000
_symmetry_Int_Tables_number   1
_chemical_formula_structural   HHe5LiBe
_chemical_formula_sum   'H2 He10 Li2 Be2'
_cell_volume   573.43976959
_cell_formula_units_Z   2
loop_
 _symmetry_equiv_pos_site_id
 _symmetry_equiv_pos_as_xyz
  1  'x, y, z'
loop_
 _atom_site_type_symbol
 _atom_site_label
 _atom_site_symmetry_multiplicity
 _atom_site_fract_x
 _atom_site_fract_y
 _atom_site_fract_z
 _atom_site_occupancy
  H  H0  1  0.25000000  0.50000000  0.78321162  1
  H  H1  1  0.75000000  0.50000000  0.21678838  1
  He  He2  1  0.25000000  0.23580512  0.10872934  1
  He  He3  1  0.25000000  0.76419488  0.10872934  1
  He  He4  1  0.75000000  0.23580512  0.89127066  1
  He  He5  1  0.75000000  0.76419488  0.89127066  1
  He  He6  1  -0.00000000  0.24493611  0.50000000  1
  He  He7  1  0.50000000  0.75506389  0.50000000  1
  He  He8  1  0.00000000  0.75506389  0.50000000  1
  He  He9  1  0.50000000  0.24493611  0.50000000  1
  He  He10  1  0.25000000  0.00000000  0.77470397  1
  He  He11  1  0.75000000  -0.00000000  0.22529603  1
  Li  Li12  1  -0.00000000  0.00000000  0.00000000  1
  Li  Li13  1  0.50000000  0.00000000  0.00000000  1
  Be  Be14  1  0.25000000  -0.00000000  0.33282910  1
  Be  Be15  1  0.75000000  0.00000000  0.66717090  1
