# generated using pymatgen
data_HHe3
_symmetry_space_group_name_H-M   'P 1'
_cell_length_a   8.24821445
_cell_length_b   8.24821445
_cell_length_c   8.24821445
_cell_angle_alpha   153.99676292
_cell_angle_beta   153.99676292
_cell_angle_gamma   37.10430954
_symmetry_Int_Tables_number   1
_chemical_formula_structural   HHe3
_chemical_formula_sum   'H2 He6'
_cell_volume   107.70758095
_cell_formula_units_Z   2
loop_
 _symmetry_equiv_pos_site_id
 _symmetry_equiv_pos_as_xyz
  1  'x, y, z'
loop_
 _atom_site_type_symbol
 _atom_site_label
 _atom_site_symmetry_multiplicity
 _atom_site_fract_x
 _atom_site_fract_y
 _atom_site_fract_z
 _atom_site_occupancy
  H  H0  1  0.11872554  0.11872554  0.00000000  1
  H  H1  1  0.88127446  0.88127446  -0.00000000  1
  He  He2  1  0.50000000  -0.00000000  0.50000000  1
  He  He3  1  -0.00000000  0.50000000  0.50000000  1
  He  He4  1  0.75000000  0.25000000  0.50000000  1
  He  He5  1  0.25000000  0.75000000  0.50000000  1
  He  He6  1  0.37132088  0.37132088  0.00000000  1
  He  He7  1  0.62867912  0.62867912  0.00000000  1
