# generated using pymatgen
data_HHeLi3Be2B
_symmetry_space_group_name_H-M   'P 1'
_cell_length_a   4.00052305
_cell_length_b   4.00052305
_cell_length_c   16.33576590
_cell_angle_alpha   90.00000000
_cell_angle_beta   90.00000000
_cell_angle_gamma   90.00000000
_symmetry_Int_Tables_number   1
_chemical_formula_structural   HHeLi3Be2B
_chemical_formula_sum   'H2 He2 Li6 Be4 B2'
_cell_volume   261.44061377
_cell_formula_units_Z   2
loop_
 _symmetry_equiv_pos_site_id
 _symmetry_equiv_pos_as_xyz
  1  'x, y, z'
loop_
 _atom_site_type_symbol
 _atom_site_label
 _atom_site_symmetry_multiplicity
 _atom_site_fract_x
 _atom_site_fract_y
 _atom_site_fract_z
 _atom_site_occupancy
  H  H0  1  0.25000000  0.25000000  0.09912493  1
  H  H1  1  0.75000000  0.75000000  0.90087507  1
  He  He2  1  0.25000000  0.75000000  0.00000000  1
  He  He3  1  0.75000000  0.25000000  0.00000000  1
  Li  Li4  1  0.25000000  0.75000000  0.29679954  1
  Li  Li5  1  0.75000000  0.25000000  0.29679954  1
  Li  Li6  1  0.75000000  0.25000000  0.70320046  1
  Li  Li7  1  0.25000000  0.75000000  0.70320046  1
  Li  Li8  1  0.25000000  0.25000000  0.43244361  1
  Li  Li9  1  0.75000000  0.75000000  0.56755639  1
  Be  Be10  1  0.75000000  0.75000000  0.19742398  1
  Be  Be11  1  0.25000000  0.25000000  0.80257602  1
  Be  Be12  1  0.75000000  0.75000000  0.41927661  1
  Be  Be13  1  0.25000000  0.25000000  0.58072339  1
  B  B14  1  0.25000000  0.25000000  0.31059353  1
  B  B15  1  0.75000000  0.75000000  0.68940647  1
