# generated using pymatgen
data_H2He7Li2Be
_symmetry_space_group_name_H-M   'P 1'
_cell_length_a   7.84284269
_cell_length_b   7.84284269
_cell_length_c   5.04080274
_cell_angle_alpha   90.00000000
_cell_angle_beta   90.00000000
_cell_angle_gamma   90.00000000
_symmetry_Int_Tables_number   1
_chemical_formula_structural   H2He7Li2Be
_chemical_formula_sum   'H4 He14 Li4 Be2'
_cell_volume   310.06069099
_cell_formula_units_Z   2
loop_
 _symmetry_equiv_pos_site_id
 _symmetry_equiv_pos_as_xyz
  1  'x, y, z'
loop_
 _atom_site_type_symbol
 _atom_site_label
 _atom_site_symmetry_multiplicity
 _atom_site_fract_x
 _atom_site_fract_y
 _atom_site_fract_z
 _atom_site_occupancy
  H  H0  1  0.33266277  0.16733723  0.50715654  1
  H  H1  1  0.66733723  0.83266277  0.50715654  1
  H  H2  1  0.16733723  0.66733723  0.49284346  1
  H  H3  1  0.83266277  0.33266277  0.49284346  1
  He  He4  1  0.50000000  0.00000000  0.18074803  1
  He  He5  1  0.00000000  0.50000000  0.81925197  1
  He  He6  1  0.14076222  0.35923778  0.25998488  1
  He  He7  1  0.85923778  0.64076222  0.25998488  1
  He  He8  1  0.35923778  0.85923778  0.74001512  1
  He  He9  1  0.64076222  0.14076222  0.74001512  1
  He  He10  1  0.08366252  0.18247704  0.78762793  1
  He  He11  1  0.91633748  0.81752296  0.78762793  1
  He  He12  1  0.18247704  0.91633748  0.21237207  1
  He  He13  1  0.81752296  0.08366252  0.21237207  1
  He  He14  1  0.41633748  0.68247704  0.21237207  1
  He  He15  1  0.58366252  0.31752296  0.21237207  1
  He  He16  1  0.31752296  0.41633748  0.78762793  1
  He  He17  1  0.68247704  0.58366252  0.78762793  1
  Li  Li18  1  0.14156146  0.35843854  0.93975643  1
  Li  Li19  1  0.85843854  0.64156146  0.93975643  1
  Li  Li20  1  0.35843854  0.85843854  0.06024357  1
  Li  Li21  1  0.64156146  0.14156146  0.06024357  1
  Be  Be22  1  0.00000000  0.00000000  0.00000000  1
  Be  Be23  1  0.50000000  0.50000000  0.00000000  1
