# generated using pymatgen
data_HHe2
_symmetry_space_group_name_H-M   'P 1'
_cell_length_a   4.05581517
_cell_length_b   5.41558837
_cell_length_c   6.59461198
_cell_angle_alpha   89.99970006
_cell_angle_beta   90.00000000
_cell_angle_gamma   90.00000000
_symmetry_Int_Tables_number   1
_chemical_formula_structural   HHe2
_chemical_formula_sum   'H2 He4'
_cell_volume   144.84818206
_cell_formula_units_Z   2
loop_
 _symmetry_equiv_pos_site_id
 _symmetry_equiv_pos_as_xyz
  1  'x, y, z'
loop_
 _atom_site_type_symbol
 _atom_site_label
 _atom_site_symmetry_multiplicity
 _atom_site_fract_x
 _atom_site_fract_y
 _atom_site_fract_z
 _atom_site_occupancy
  H  H0  1  0.99963616  -0.00000000  0.00000000  1
  H  H1  1  0.49990474  0.50000000  0.50000000  1
  He  He2  1  0.99987009  0.21116474  0.62960719  1
  He  He3  1  0.99987009  0.78883526  0.37039281  1
  He  He4  1  0.49965946  0.71116575  0.87038617  1
  He  He5  1  0.49965946  0.28883425  0.12961383  1
