# generated using pymatgen
data_HHeLi3Be7
_symmetry_space_group_name_H-M   'P 1'
_cell_length_a   10.43240819
_cell_length_b   10.43237885
_cell_length_c   5.84370562
_cell_angle_alpha   90.00000000
_cell_angle_beta   90.00000000
_cell_angle_gamma   120.00107861
_symmetry_Int_Tables_number   1
_chemical_formula_structural   HHeLi3Be7
_chemical_formula_sum   'H2 He2 Li6 Be14'
_cell_volume   550.78507456
_cell_formula_units_Z   2
loop_
 _symmetry_equiv_pos_site_id
 _symmetry_equiv_pos_as_xyz
  1  'x, y, z'
loop_
 _atom_site_type_symbol
 _atom_site_label
 _atom_site_symmetry_multiplicity
 _atom_site_fract_x
 _atom_site_fract_y
 _atom_site_fract_z
 _atom_site_occupancy
  H  H0  1  0.00000629  0.00000381  0.31407913  1
  H  H1  1  0.99999371  0.99999619  0.81407913  1
  He  He2  1  0.33332505  0.66666783  0.67343534  1
  He  He3  1  0.66667495  0.33333217  0.17343534  1
  Li  Li4  1  0.12589791  0.35964985  0.25608604  1
  Li  Li5  1  0.64034736  0.76624524  0.25607767  1
  Li  Li6  1  0.23374840  0.87411048  0.25608505  1
  Li  Li7  1  0.87410209  0.64035015  0.75608604  1
  Li  Li8  1  0.35965264  0.23375476  0.75607767  1
  Li  Li9  1  0.76625160  0.12588952  0.75608505  1
  Be  Be10  1  0.09371682  0.26910734  0.77053907  1
  Be  Be11  1  0.73088274  0.82460198  0.77053894  1
  Be  Be12  1  0.17539127  0.90629077  0.77053787  1
  Be  Be13  1  0.90628318  0.73089266  0.27053907  1
  Be  Be14  1  0.26911726  0.17539802  0.27053894  1
  Be  Be15  1  0.82460873  0.09370923  0.27053787  1
  Be  Be16  1  0.41245894  0.52066586  0.51735206  1
  Be  Be17  1  0.47933330  0.89179971  0.51733739  1
  Be  Be18  1  0.10819146  0.58753260  0.51734275  1
  Be  Be19  1  0.58754106  0.47933414  0.01735206  1
  Be  Be20  1  0.52066670  0.10820029  0.01733739  1
  Be  Be21  1  0.89180854  0.41246740  0.01734275  1
  Be  Be22  1  0.33332501  0.66667433  0.05158869  1
  Be  Be23  1  0.66667499  0.33332567  0.55158869  1
