# generated using pymatgen
data_HHe9Li5
_symmetry_space_group_name_H-M   'P 1'
_cell_length_a   6.47511201
_cell_length_b   6.47511201
_cell_length_c   10.81866584
_cell_angle_alpha   90.00000000
_cell_angle_beta   90.00000000
_cell_angle_gamma   119.99651107
_symmetry_Int_Tables_number   1
_chemical_formula_structural   HHe9Li5
_chemical_formula_sum   'H2 He18 Li10'
_cell_volume   392.83861966
_cell_formula_units_Z   2
loop_
 _symmetry_equiv_pos_site_id
 _symmetry_equiv_pos_as_xyz
  1  'x, y, z'
loop_
 _atom_site_type_symbol
 _atom_site_label
 _atom_site_symmetry_multiplicity
 _atom_site_fract_x
 _atom_site_fract_y
 _atom_site_fract_z
 _atom_site_occupancy
  H  H0  1  0.00000000  0.00000000  0.00000000  1
  H  H1  1  0.00000000  0.00000000  0.50000000  1
  He  He2  1  0.53577007  0.07152769  0.39256667  1
  He  He3  1  0.92847231  0.46422993  0.39256667  1
  He  He4  1  0.53575493  0.46424507  0.39255509  1
  He  He5  1  0.46422993  0.92847231  0.89256667  1
  He  He6  1  0.07152769  0.53577007  0.89256667  1
  He  He7  1  0.46424507  0.53575493  0.89255509  1
  He  He8  1  0.07152769  0.53577007  0.60743333  1
  He  He9  1  0.46422993  0.92847231  0.60743333  1
  He  He10  1  0.46424507  0.53575493  0.60744491  1
  He  He11  1  0.92847231  0.46422993  0.10743333  1
  He  He12  1  0.53577007  0.07152769  0.10743333  1
  He  He13  1  0.53575493  0.46424507  0.10744491  1
  He  He14  1  0.20293972  0.40592108  0.25000000  1
  He  He15  1  0.59407892  0.79706028  0.25000000  1
  He  He16  1  0.20293773  0.79706227  0.25000000  1
  He  He17  1  0.79706028  0.59407892  0.75000000  1
  He  He18  1  0.40592108  0.20293972  0.75000000  1
  He  He19  1  0.79706227  0.20293773  0.75000000  1
  Li  Li20  1  0.33331926  0.66668074  0.06129682  1
  Li  Li21  1  0.66668074  0.33331926  0.56129682  1
  Li  Li22  1  0.66668074  0.33331926  0.93870318  1
  Li  Li23  1  0.33331926  0.66668074  0.43870318  1
  Li  Li24  1  0.82328082  0.64657819  0.25000000  1
  Li  Li25  1  0.35342181  0.17671918  0.25000000  1
  Li  Li26  1  0.82328873  0.17671127  0.25000000  1
  Li  Li27  1  0.17671918  0.35342181  0.75000000  1
  Li  Li28  1  0.64657819  0.82328082  0.75000000  1
  Li  Li29  1  0.17671127  0.82328873  0.75000000  1
