# generated using pymatgen
data_HHeLi
_symmetry_space_group_name_H-M   'P 1'
_cell_length_a   7.48605405
_cell_length_b   7.48605405
_cell_length_c   4.18006108
_cell_angle_alpha   90.00000000
_cell_angle_beta   90.00000000
_cell_angle_gamma   119.99969553
_symmetry_Int_Tables_number   1
_chemical_formula_structural   HHeLi
_chemical_formula_sum   'H3 He3 Li3'
_cell_volume   202.87125137
_cell_formula_units_Z   3
loop_
 _symmetry_equiv_pos_site_id
 _symmetry_equiv_pos_as_xyz
  1  'x, y, z'
loop_
 _atom_site_type_symbol
 _atom_site_label
 _atom_site_symmetry_multiplicity
 _atom_site_fract_x
 _atom_site_fract_y
 _atom_site_fract_z
 _atom_site_occupancy
  H  H0  1  0.58458991  0.00000133  0.50000000  1
  H  H1  1  0.00000133  0.58458991  0.50000000  1
  H  H2  1  0.41541494  0.41541494  0.50000000  1
  He  He3  1  0.99999076  0.99999076  0.50000000  1
  He  He4  1  0.33333392  0.66666358  0.00000000  1
  He  He5  1  0.66666358  0.33333392  0.00000000  1
  Li  Li6  1  0.24805100  0.00000329  0.00000000  1
  Li  Li7  1  0.00000329  0.24805100  0.00000000  1
  Li  Li8  1  0.75195129  0.75195129  0.00000000  1
