# generated using pymatgen
data_H2He5Li2
_symmetry_space_group_name_H-M   'P 1'
_cell_length_a   6.24098139
_cell_length_b   7.74924926
_cell_length_c   14.66128141
_cell_angle_alpha   90.00000000
_cell_angle_beta   90.00000000
_cell_angle_gamma   90.00000000
_symmetry_Int_Tables_number   1
_chemical_formula_structural   H2He5Li2
_chemical_formula_sum   'H8 He20 Li8'
_cell_volume   709.06238608
_cell_formula_units_Z   4
loop_
 _symmetry_equiv_pos_site_id
 _symmetry_equiv_pos_as_xyz
  1  'x, y, z'
loop_
 _atom_site_type_symbol
 _atom_site_label
 _atom_site_symmetry_multiplicity
 _atom_site_fract_x
 _atom_site_fract_y
 _atom_site_fract_z
 _atom_site_occupancy
  H  H0  1  0.75000000  0.88287723  0.18280377  1
  H  H1  1  0.25000000  0.38287723  0.31719623  1
  H  H2  1  0.25000000  0.11712277  0.81719623  1
  H  H3  1  0.75000000  0.61712277  0.68280377  1
  H  H4  1  0.75000000  0.36980806  0.18935282  1
  H  H5  1  0.25000000  0.86980806  0.31064718  1
  H  H6  1  0.25000000  0.63019194  0.81064718  1
  H  H7  1  0.75000000  0.13019194  0.68935282  1
  He  He8  1  0.75000000  0.62802829  0.24252971  1
  He  He9  1  0.25000000  0.12802829  0.25747029  1
  He  He10  1  0.25000000  0.37197171  0.75747029  1
  He  He11  1  0.75000000  0.87197171  0.74252971  1
  He  He12  1  0.50893177  0.86761324  0.08605429  1
  He  He13  1  0.49106823  0.36761324  0.41394571  1
  He  He14  1  0.00893177  0.13238676  0.91394571  1
  He  He15  1  0.99106823  0.63238676  0.58605429  1
  He  He16  1  0.49106823  0.13238676  0.91394571  1
  He  He17  1  0.50893177  0.63238676  0.58605429  1
  He  He18  1  0.99106823  0.86761324  0.08605429  1
  He  He19  1  0.00893177  0.36761324  0.41394571  1
  He  He20  1  0.99017160  0.38238058  0.09172337  1
  He  He21  1  0.00982840  0.88238058  0.40827663  1
  He  He22  1  0.49017160  0.61761942  0.90827663  1
  He  He23  1  0.50982840  0.11761942  0.59172337  1
  He  He24  1  0.00982840  0.61761942  0.90827663  1
  He  He25  1  0.99017160  0.11761942  0.59172337  1
  He  He26  1  0.50982840  0.38238058  0.09172337  1
  He  He27  1  0.49017160  0.88238058  0.40827663  1
  Li  Li28  1  0.25000000  0.12654111  0.06610859  1
  Li  Li29  1  0.75000000  0.62654111  0.43389141  1
  Li  Li30  1  0.75000000  0.87345889  0.93389141  1
  Li  Li31  1  0.25000000  0.37345889  0.56610859  1
  Li  Li32  1  0.25000000  0.62371109  0.05238974  1
  Li  Li33  1  0.75000000  0.12371109  0.44761026  1
  Li  Li34  1  0.75000000  0.37628891  0.94761026  1
  Li  Li35  1  0.25000000  0.87628891  0.55238974  1
