# generated using pymatgen
data_H2He8Li
_symmetry_space_group_name_H-M   'P 1'
_cell_length_a   12.96048351
_cell_length_b   12.96048351
_cell_length_c   12.96048351
_cell_angle_alpha   126.67782665
_cell_angle_beta   126.67782665
_cell_angle_gamma   78.77691138
_symmetry_Int_Tables_number   1
_chemical_formula_structural   H2He8Li
_chemical_formula_sum   'H8 He32 Li4'
_cell_volume   1355.06741348
_cell_formula_units_Z   4
loop_
 _symmetry_equiv_pos_site_id
 _symmetry_equiv_pos_as_xyz
  1  'x, y, z'
loop_
 _atom_site_type_symbol
 _atom_site_label
 _atom_site_symmetry_multiplicity
 _atom_site_fract_x
 _atom_site_fract_y
 _atom_site_fract_z
 _atom_site_occupancy
  H  H0  1  0.25000000  0.27552047  0.02552047  1
  H  H1  1  0.75000000  0.22447953  0.47447953  1
  H  H2  1  0.27552047  0.75000000  0.02552047  1
  H  H3  1  0.22447953  0.25000000  0.47447953  1
  H  H4  1  0.75000000  0.72447953  0.97447953  1
  H  H5  1  0.25000000  0.77552047  0.52552047  1
  H  H6  1  0.72447953  0.25000000  0.97447953  1
  H  H7  1  0.77552047  0.75000000  0.52552047  1
  He  He8  1  0.36547961  0.25620125  0.94674586  1
  He  He9  1  0.80945539  0.41873375  0.55325414  1
  He  He10  1  0.25620125  0.80945539  0.89072164  1
  He  He11  1  0.41873375  0.36547961  0.60927836  1
  He  He12  1  0.69054461  0.24379875  0.60927836  1
  He  He13  1  0.13452039  0.08126625  0.89072164  1
  He  He14  1  0.08126625  0.69054461  0.94674586  1
  He  He15  1  0.24379875  0.13452039  0.55325414  1
  He  He16  1  0.63452039  0.74379875  0.05325414  1
  He  He17  1  0.19054461  0.58126625  0.44674586  1
  He  He18  1  0.74379875  0.19054461  0.10927836  1
  He  He19  1  0.58126625  0.63452039  0.39072164  1
  He  He20  1  0.30945539  0.75620125  0.39072164  1
  He  He21  1  0.86547961  0.91873375  0.10927836  1
  He  He22  1  0.91873375  0.30945539  0.05325414  1
  He  He23  1  0.75620125  0.86547961  0.44674586  1
  He  He24  1  0.40243034  0.37124764  0.28061823  1
  He  He25  1  0.59062941  0.12181211  0.21938177  1
  He  He26  1  0.37124764  0.59062941  0.96881730  1
  He  He27  1  0.12181211  0.40243034  0.53118270  1
  He  He28  1  0.90937059  0.12875236  0.53118270  1
  He  He29  1  0.09756966  0.37818789  0.96881730  1
  He  He30  1  0.37818789  0.90937059  0.28061823  1
  He  He31  1  0.12875236  0.09756966  0.21938177  1
  He  He32  1  0.59756966  0.62875236  0.71938177  1
  He  He33  1  0.40937059  0.87818789  0.78061823  1
  He  He34  1  0.62875236  0.40937059  0.03118270  1
  He  He35  1  0.87818789  0.59756966  0.46881730  1
  He  He36  1  0.09062941  0.87124764  0.46881730  1
  He  He37  1  0.90243034  0.62181211  0.03118270  1
  He  He38  1  0.62181211  0.09062941  0.71938177  1
  He  He39  1  0.87124764  0.90243034  0.78061823  1
  Li  Li40  1  0.62500000  0.37500000  0.25000000  1
  Li  Li41  1  0.37500000  0.62500000  0.75000000  1
  Li  Li42  1  0.87500000  0.12500000  0.75000000  1
  Li  Li43  1  0.12500000  0.87500000  0.25000000  1
