# generated using pymatgen
data_H4He3
_symmetry_space_group_name_H-M   'P 1'
_cell_length_a   7.66042468
_cell_length_b   7.66037022
_cell_length_c   2.92417242
_cell_angle_alpha   90.00000000
_cell_angle_beta   90.00000000
_cell_angle_gamma   119.99974771
_symmetry_Int_Tables_number   1
_chemical_formula_structural   H4He3
_chemical_formula_sum   'H8 He6'
_cell_volume   148.60633329
_cell_formula_units_Z   2
loop_
 _symmetry_equiv_pos_site_id
 _symmetry_equiv_pos_as_xyz
  1  'x, y, z'
loop_
 _atom_site_type_symbol
 _atom_site_label
 _atom_site_symmetry_multiplicity
 _atom_site_fract_x
 _atom_site_fract_y
 _atom_site_fract_z
 _atom_site_occupancy
  H  H0  1  0.03111807  0.33018414  0.26708780  1
  H  H1  1  0.66980703  0.70092260  0.26708787  1
  H  H2  1  0.29906427  0.96888635  0.26708793  1
  H  H3  1  0.96888193  0.66981586  0.76708780  1
  H  H4  1  0.33019297  0.29907740  0.76708787  1
  H  H5  1  0.70093573  0.03111365  0.76708793  1
  H  H6  1  0.66666941  0.33333162  0.26672764  1
  H  H7  1  0.33333059  0.66666838  0.76672764  1
  He  He8  1  0.76918094  0.17534218  0.26700307  1
  He  He9  1  0.82465553  0.59383144  0.26700289  1
  He  He10  1  0.40617007  0.23082456  0.26700281  1
  He  He11  1  0.23081906  0.82465782  0.76700307  1
  He  He12  1  0.17534447  0.40616856  0.76700289  1
  He  He13  1  0.59382993  0.76917544  0.76700281  1
