# generated using pymatgen
data_H6HeLi2
_symmetry_space_group_name_H-M   'P 1'
_cell_length_a   8.21797386
_cell_length_b   8.21797386
_cell_length_c   4.03706611
_cell_angle_alpha   90.00000000
_cell_angle_beta   90.00000000
_cell_angle_gamma   119.39033978
_symmetry_Int_Tables_number   1
_chemical_formula_structural   H6HeLi2
_chemical_formula_sum   'H6 He1 Li2'
_cell_volume   237.55346811
_cell_formula_units_Z   1
loop_
 _symmetry_equiv_pos_site_id
 _symmetry_equiv_pos_as_xyz
  1  'x, y, z'
loop_
 _atom_site_type_symbol
 _atom_site_label
 _atom_site_symmetry_multiplicity
 _atom_site_fract_x
 _atom_site_fract_y
 _atom_site_fract_z
 _atom_site_occupancy
  H  H0  1  0.60993810  0.00029300  0.50000000  1
  H  H1  1  0.00029300  0.60993810  0.50000000  1
  H  H2  1  0.39349366  0.39349366  0.50000000  1
  H  H3  1  0.23756899  0.00136831  0.00000000  1
  H  H4  1  0.00136831  0.23756899  0.00000000  1
  H  H5  1  0.76238661  0.76238661  0.00000000  1
  He  He6  1  0.99500428  0.99500428  0.50000000  1
  Li  Li7  1  0.33377947  0.66616757  0.00000000  1
  Li  Li8  1  0.66616757  0.33377947  0.00000000  1
