# generated using pymatgen
data_HHe6LiBe2
_symmetry_space_group_name_H-M   'P 1'
_cell_length_a   5.63087309
_cell_length_b   5.63087309
_cell_length_c   5.63087309
_cell_angle_alpha   60.00000000
_cell_angle_beta   60.00000000
_cell_angle_gamma   60.00000000
_symmetry_Int_Tables_number   1
_chemical_formula_structural   HHe6LiBe2
_chemical_formula_sum   'H1 He6 Li1 Be2'
_cell_volume   126.24442813
_cell_formula_units_Z   1
loop_
 _symmetry_equiv_pos_site_id
 _symmetry_equiv_pos_as_xyz
  1  'x, y, z'
loop_
 _atom_site_type_symbol
 _atom_site_label
 _atom_site_symmetry_multiplicity
 _atom_site_fract_x
 _atom_site_fract_y
 _atom_site_fract_z
 _atom_site_occupancy
  H  H0  1  0.50000000  0.50000000  0.50000000  1
  He  He1  1  0.23840274  0.76159726  0.23840274  1
  He  He2  1  0.76159726  0.23840274  0.76159726  1
  He  He3  1  0.23840274  0.23840274  0.76159726  1
  He  He4  1  0.76159726  0.76159726  0.23840274  1
  He  He5  1  0.76159726  0.23840274  0.23840274  1
  He  He6  1  0.23840274  0.76159726  0.76159726  1
  Li  Li7  1  -0.00000000  -0.00000000  0.00000000  1
  Be  Be8  1  0.25000000  0.25000000  0.25000000  1
  Be  Be9  1  0.75000000  0.75000000  0.75000000  1
