# generated using pymatgen
data_HHe
_symmetry_space_group_name_H-M   'P 1'
_cell_length_a   3.79763586
_cell_length_b   3.79762022
_cell_length_c   80.68018701
_cell_angle_alpha   89.99996818
_cell_angle_beta   90.00000000
_cell_angle_gamma   120.00013627
_symmetry_Int_Tables_number   1
_chemical_formula_structural   HHe
_chemical_formula_sum   'H26 He26'
_cell_volume   1007.67801091
_cell_formula_units_Z   26
loop_
 _symmetry_equiv_pos_site_id
 _symmetry_equiv_pos_as_xyz
  1  'x, y, z'
loop_
 _atom_site_type_symbol
 _atom_site_label
 _atom_site_symmetry_multiplicity
 _atom_site_fract_x
 _atom_site_fract_y
 _atom_site_fract_z
 _atom_site_occupancy
  H  H0  1  0.00001249  0.00002498  0.02885871  1
  H  H1  1  0.66667271  0.33334543  0.06730600  1
  H  H2  1  0.33331396  0.66662791  0.10577137  1
  H  H3  1  0.00001109  0.00002218  0.14421638  1
  H  H4  1  0.66667273  0.33334546  0.18267992  1
  H  H5  1  0.33331395  0.66662790  0.22117042  1
  H  H6  1  0.00001097  0.00002194  0.25959463  1
  H  H7  1  0.66668712  0.33337424  0.29809705  1
  H  H8  1  0.99998917  0.99997834  0.33653559  1
  H  H9  1  0.33332710  0.66665420  0.37498680  1
  H  H10  1  0.66667233  0.33334466  0.41349468  1
  H  H11  1  0.33331405  0.66662809  0.45191593  1
  H  H12  1  0.00001103  0.00002206  0.49035501  1
  H  H13  1  0.66668716  0.33337433  0.52885814  1
  H  H14  1  0.99998907  0.99997814  0.56730620  1
  H  H15  1  0.33332696  0.66665392  0.60575167  1
  H  H16  1  0.66667253  0.33334505  0.64423983  1
  H  H17  1  0.33331400  0.66662800  0.68267829  1
  H  H18  1  0.00001092  0.00002183  0.72114810  1
  H  H19  1  0.66668721  0.33337442  0.75963896  1
  H  H20  1  0.99998906  0.99997812  0.79807267  1
  H  H21  1  0.33332711  0.66665422  0.83653603  1
  H  H22  1  0.66668612  0.33337223  0.87500885  1
  H  H23  1  0.99998895  0.99997789  0.91347387  1
  H  H24  1  0.33332758  0.66665517  0.95191902  1
  H  H25  1  0.66668624  0.33337247  0.99035440  1
  He  He26  1  0.00001124  0.00002249  0.99999279  1
  He  He27  1  0.66668774  0.33337549  0.03846528  1
  He  He28  1  0.33332532  0.66665064  0.07692215  1
  He  He29  1  0.99998882  0.99997764  0.11539586  1
  He  He30  1  0.66668806  0.33337613  0.15382827  1
  He  He31  1  0.33332523  0.66665046  0.19231372  1
  He  He32  1  0.99998867  0.99997735  0.23077818  1
  He  He33  1  0.66668789  0.33337578  0.26922826  1
  He  He34  1  0.00001104  0.00002209  0.30770061  1
  He  He35  1  0.33331195  0.66662391  0.34616002  1
  He  He36  1  0.66667452  0.33334904  0.38462009  1
  He  He37  1  0.33332501  0.66665002  0.42308897  1
  He  He38  1  0.99998883  0.99997766  0.46153143  1
  He  He39  1  0.66668821  0.33337643  0.49999261  1
  He  He40  1  0.00001087  0.00002174  0.53845904  1
  He  He41  1  0.33331238  0.66662475  0.57691927  1
  He  He42  1  0.66667479  0.33334957  0.61539356  1
  He  He43  1  0.33332492  0.66664985  0.65383017  1
  He  He44  1  0.99998870  0.99997740  0.69230714  1
  He  He45  1  0.66668777  0.33337553  0.73078694  1
  He  He46  1  0.00001102  0.00002205  0.76923235  1
  He  He47  1  0.33331194  0.66662387  0.80769599  1
  He  He48  1  0.66667491  0.33334981  0.84616331  1
  He  He49  1  0.00001122  0.00002245  0.88461377  1
  He  He50  1  0.33331238  0.66662476  0.92308704  1
  He  He51  1  0.66667496  0.33334992  0.96152464  1
