# generated using pymatgen
data_HHe4Li4
_symmetry_space_group_name_H-M   'P 1'
_cell_length_a   8.54143067
_cell_length_b   5.80570605
_cell_length_c   5.80508380
_cell_angle_alpha   69.37560530
_cell_angle_beta   67.75628134
_cell_angle_gamma   78.26043217
_symmetry_Int_Tables_number   1
_chemical_formula_structural   HHe4Li4
_chemical_formula_sum   'H2 He8 Li8'
_cell_volume   248.55090726
_cell_formula_units_Z   2
loop_
 _symmetry_equiv_pos_site_id
 _symmetry_equiv_pos_as_xyz
  1  'x, y, z'
loop_
 _atom_site_type_symbol
 _atom_site_label
 _atom_site_symmetry_multiplicity
 _atom_site_fract_x
 _atom_site_fract_y
 _atom_site_fract_z
 _atom_site_occupancy
  H  H0  1  0.75109734  0.27880584  0.65590718  1
  H  H1  1  0.24890266  0.72119416  0.34409282  1
  He  He2  1  0.86728246  0.78756960  0.53942209  1
  He  He3  1  0.13271754  0.21243040  0.46057791  1
  He  He4  1  0.51872426  0.26037053  0.27798957  1
  He  He5  1  0.48127574  0.73962947  0.72201043  1
  He  He6  1  0.66676588  0.76909324  0.08594618  1
  He  He7  1  0.33323412  0.23090676  0.91405382  1
  He  He8  1  0.93233200  0.27659776  0.01878758  1
  He  He9  1  0.06766800  0.72340224  0.98121242  1
  Li  Li10  1  0.60482544  0.10114082  0.63757015  1
  Li  Li11  1  0.39517456  0.89885918  0.36242985  1
  Li  Li12  1  0.83140071  0.50153708  0.33431089  1
  Li  Li13  1  0.16859929  0.49846292  0.66568911  1
  Li  Li14  1  0.69895584  0.47322383  0.86615891  1
  Li  Li15  1  0.30104416  0.52677617  0.13384109  1
  Li  Li16  1  0.88535563  0.02917218  0.80230894  1
  Li  Li17  1  0.11464437  0.97082782  0.19769106  1
