# generated using pymatgen
data_HHe2Li8Be
_symmetry_space_group_name_H-M   'P 1'
_cell_length_a   5.48432520
_cell_length_b   6.82404187
_cell_length_c   18.16583959
_cell_angle_alpha   89.77027587
_cell_angle_beta   90.00000000
_cell_angle_gamma   90.00000000
_symmetry_Int_Tables_number   1
_chemical_formula_structural   HHe2Li8Be
_chemical_formula_sum   'H4 He8 Li32 Be4'
_cell_volume   679.85589213
_cell_formula_units_Z   4
loop_
 _symmetry_equiv_pos_site_id
 _symmetry_equiv_pos_as_xyz
  1  'x, y, z'
loop_
 _atom_site_type_symbol
 _atom_site_label
 _atom_site_symmetry_multiplicity
 _atom_site_fract_x
 _atom_site_fract_y
 _atom_site_fract_z
 _atom_site_occupancy
  H  H0  1  0.25229553  0.78930750  0.78377929  1
  H  H1  1  0.75229553  0.21069250  0.21622071  1
  H  H2  1  0.28491125  0.71118728  0.28402945  1
  H  H3  1  0.78491125  0.28881272  0.71597055  1
  He  He4  1  0.26290627  0.00899396  0.12525693  1
  He  He5  1  0.76290627  0.99100604  0.87474307  1
  He  He6  1  0.26323791  0.66203233  0.96025135  1
  He  He7  1  0.76323791  0.33796767  0.03974865  1
  He  He8  1  0.26500404  0.83642549  0.46013913  1
  He  He9  1  0.76500404  0.16357451  0.53986087  1
  He  He10  1  0.26795432  0.49093540  0.62662497  1
  He  He11  1  0.76795432  0.50906460  0.37337503  1
  Li  Li12  1  0.49558505  0.19060152  0.09284219  1
  Li  Li13  1  0.99558505  0.80939848  0.90715781  1
  Li  Li14  1  0.28041116  0.11872357  0.23168334  1
  Li  Li15  1  0.78041116  0.88127643  0.76831666  1
  Li  Li16  1  0.98806001  0.15660673  0.10337084  1
  Li  Li17  1  0.48806001  0.84339327  0.89662916  1
  Li  Li18  1  0.02991357  0.79241460  0.18066060  1
  Li  Li19  1  0.52991357  0.20758540  0.81933940  1
  Li  Li20  1  0.26472306  0.84303125  0.04012661  1
  Li  Li21  1  0.76472306  0.15696875  0.95987339  1
  Li  Li22  1  0.56660549  0.83732364  0.17025090  1
  Li  Li23  1  0.06660549  0.16267636  0.82974910  1
  Li  Li24  1  0.26324713  0.49099181  0.86247841  1
  Li  Li25  1  0.76324713  0.50900819  0.13752159  1
  Li  Li26  1  0.04873797  0.48059461  0.00624320  1
  Li  Li27  1  0.54873797  0.51940539  0.99375680  1
  Li  Li28  1  0.27684906  0.65727560  0.54095843  1
  Li  Li29  1  0.77684906  0.34272440  0.45904157  1
  Li  Li30  1  0.25421070  0.00971211  0.36256617  1
  Li  Li31  1  0.75421070  0.99028789  0.63743383  1
  Li  Li32  1  0.02651576  0.67154662  0.39900986  1
  Li  Li33  1  0.52651576  0.32845338  0.60099014  1
  Li  Li34  1  0.50175745  0.01342366  0.49865686  1
  Li  Li35  1  0.00175745  0.98657634  0.50134314  1
  Li  Li36  1  0.51671723  0.67476541  0.40351877  1
  Li  Li37  1  0.01671723  0.32523459  0.59648123  1
  Li  Li38  1  0.24302574  0.37527011  0.73253403  1
  Li  Li39  1  0.74302574  0.62472989  0.26746597  1
  Li  Li40  1  0.00060632  0.68856273  0.67403936  1
  Li  Li41  1  0.50060632  0.31143727  0.32596064  1
  Li  Li42  1  0.53312800  0.68173555  0.68135895  1
  Li  Li43  1  0.03312800  0.31826445  0.31864105  1
  Be  Be44  1  0.27651978  0.30663072  0.81403517  1
  Be  Be45  1  0.77651978  0.69336928  0.18596483  1
  Be  Be46  1  0.26607719  0.19220440  0.31268770  1
  Be  Be47  1  0.76607719  0.80779560  0.68731230  1
