# generated using pymatgen
data_H2He8Li3
_symmetry_space_group_name_H-M   'P 1'
_cell_length_a   7.11043544
_cell_length_b   7.11021138
_cell_length_c   12.04372382
_cell_angle_alpha   82.80902194
_cell_angle_beta   82.80654481
_cell_angle_gamma   45.52547582
_symmetry_Int_Tables_number   1
_chemical_formula_structural   H2He8Li3
_chemical_formula_sum   'H4 He16 Li6'
_cell_volume   430.45812001
_cell_formula_units_Z   2
loop_
 _symmetry_equiv_pos_site_id
 _symmetry_equiv_pos_as_xyz
  1  'x, y, z'
loop_
 _atom_site_type_symbol
 _atom_site_label
 _atom_site_symmetry_multiplicity
 _atom_site_fract_x
 _atom_site_fract_y
 _atom_site_fract_z
 _atom_site_occupancy
  H  H0  1  0.42694823  0.03245703  0.64897762  1
  H  H1  1  0.96759153  0.57326373  0.85101466  1
  H  H2  1  0.57305177  0.96754297  0.35102238  1
  H  H3  1  0.03240847  0.42673627  0.14898534  1
  He  He4  1  0.15138802  0.00105367  0.64560107  1
  He  He5  1  0.99902334  0.84878529  0.85440994  1
  He  He6  1  0.84861198  0.99894633  0.35439893  1
  He  He7  1  0.00097666  0.15121471  0.14559006  1
  He  He8  1  0.76908067  0.99835800  0.64164994  1
  He  He9  1  0.00169170  0.23109348  0.85833033  1
  He  He10  1  0.23091933  0.00164200  0.35835006  1
  He  He11  1  0.99830830  0.76890652  0.14166967  1
  He  He12  1  0.27678899  0.24813930  0.97161845  1
  He  He13  1  0.75191270  0.72321478  0.52841993  1
  He  He14  1  0.72321101  0.75186070  0.02838155  1
  He  He15  1  0.24808730  0.27678522  0.47158007  1
  He  He16  1  0.55554374  0.83574233  0.81230390  1
  He  He17  1  0.16435180  0.44453053  0.68767890  1
  He  He18  1  0.44445626  0.16425767  0.18769610  1
  He  He19  1  0.83564820  0.55546947  0.31232110  1
  Li  Li20  1  0.86442824  0.13571039  0.74999360  1
  Li  Li21  1  0.13557176  0.86428961  0.25000640  1
  Li  Li22  1  0.32423943  0.95374814  0.94237046  1
  Li  Li23  1  0.04630748  0.67578747  0.55759359  1
  Li  Li24  1  0.67576057  0.04625186  0.05762954  1
  Li  Li25  1  0.95369252  0.32421253  0.44240641  1
