# generated using pymatgen
data_HHe4Li
_symmetry_space_group_name_H-M   'P 1'
_cell_length_a   5.60966437
_cell_length_b   5.27425202
_cell_length_c   5.43111522
_cell_angle_alpha   83.18779528
_cell_angle_beta   89.99845586
_cell_angle_gamma   90.00471716
_symmetry_Int_Tables_number   1
_chemical_formula_structural   HHe4Li
_chemical_formula_sum   'H2 He8 Li2'
_cell_volume   159.55480701
_cell_formula_units_Z   2
loop_
 _symmetry_equiv_pos_site_id
 _symmetry_equiv_pos_as_xyz
  1  'x, y, z'
loop_
 _atom_site_type_symbol
 _atom_site_label
 _atom_site_symmetry_multiplicity
 _atom_site_fract_x
 _atom_site_fract_y
 _atom_site_fract_z
 _atom_site_occupancy
  H  H0  1  0.23123818  -0.00000248  0.25001741  1
  H  H1  1  0.76876182  0.00000248  0.74998259  1
  He  He2  1  0.91020924  0.25402063  0.39261204  1
  He  He3  1  0.91018676  0.74593492  0.10737775  1
  He  He4  1  0.08979076  0.74597937  0.60738796  1
  He  He5  1  0.08981324  0.25406508  0.89262225  1
  He  He6  1  0.56346493  0.72422187  0.49933451  1
  He  He7  1  0.56356732  0.27581602  0.00057517  1
  He  He8  1  0.43653507  0.27577813  0.50066549  1
  He  He9  1  0.43643268  0.72418398  0.99942483  1
  Li  Li10  1  0.31276239  0.49997355  0.75000458  1
  Li  Li11  1  0.68723761  0.50002645  0.24999542  1
