# generated using pymatgen
data_H2He6Li
_symmetry_space_group_name_H-M   'P 1'
_cell_length_a   4.61751319
_cell_length_b   5.06048318
_cell_length_c   16.95403302
_cell_angle_alpha   90.00000000
_cell_angle_beta   90.00000000
_cell_angle_gamma   90.00000000
_symmetry_Int_Tables_number   1
_chemical_formula_structural   H2He6Li
_chemical_formula_sum   'H8 He24 Li4'
_cell_volume   396.16231004
_cell_formula_units_Z   4
loop_
 _symmetry_equiv_pos_site_id
 _symmetry_equiv_pos_as_xyz
  1  'x, y, z'
loop_
 _atom_site_type_symbol
 _atom_site_label
 _atom_site_symmetry_multiplicity
 _atom_site_fract_x
 _atom_site_fract_y
 _atom_site_fract_z
 _atom_site_occupancy
  H  H0  1  0.00000000  0.25000000  0.05302289  1
  H  H1  1  0.50000000  0.75000000  0.44697711  1
  H  H2  1  -0.00000000  0.75000000  0.94697711  1
  H  H3  1  0.50000000  0.25000000  0.55302289  1
  H  H4  1  0.00000000  0.25000000  0.72276405  1
  H  H5  1  0.50000000  0.75000000  0.77723595  1
  H  H6  1  -0.00000000  0.75000000  0.27723595  1
  H  H7  1  0.50000000  0.25000000  0.22276405  1
  He  He8  1  0.76344822  0.59492454  0.04137232  1
  He  He9  1  0.73655178  0.09492454  0.45862768  1
  He  He10  1  0.23655178  0.90507546  0.04137232  1
  He  He11  1  0.26344822  0.40507546  0.45862768  1
  He  He12  1  0.23655178  0.40507546  0.95862768  1
  He  He13  1  0.26344822  0.90507546  0.54137232  1
  He  He14  1  0.76344822  0.09492454  0.95862768  1
  He  He15  1  0.73655178  0.59492454  0.54137232  1
  He  He16  1  0.72600540  0.06898748  0.12541137  1
  He  He17  1  0.77399460  0.56898748  0.37458863  1
  He  He18  1  0.27399460  0.43101252  0.12541137  1
  He  He19  1  0.22600540  0.93101252  0.37458863  1
  He  He20  1  0.27399460  0.93101252  0.87458863  1
  He  He21  1  0.22600540  0.43101252  0.62541137  1
  He  He22  1  0.72600540  0.56898748  0.87458863  1
  He  He23  1  0.77399460  0.06898748  0.62541137  1
  He  He24  1  0.72426162  0.58452861  0.20266518  1
  He  He25  1  0.77573838  0.08452861  0.29733482  1
  He  He26  1  0.27573838  0.91547139  0.20266518  1
  He  He27  1  0.22426162  0.41547139  0.29733482  1
  He  He28  1  0.27573838  0.41547139  0.79733482  1
  He  He29  1  0.22426162  0.91547139  0.70266518  1
  He  He30  1  0.72426162  0.08452861  0.79733482  1
  He  He31  1  0.77573838  0.58452861  0.70266518  1
  Li  Li32  1  0.00000000  0.25000000  0.38459505  1
  Li  Li33  1  0.50000000  0.75000000  0.11540495  1
  Li  Li34  1  0.00000000  0.75000000  0.61540495  1
  Li  Li35  1  0.50000000  0.25000000  0.88459505  1
