# generated using pymatgen
data_H5He3
_symmetry_space_group_name_H-M   'P 1'
_cell_length_a   5.85331528
_cell_length_b   9.10306382
_cell_length_c   9.29996497
_cell_angle_alpha   55.09088026
_cell_angle_beta   90.00929470
_cell_angle_gamma   90.04304407
_symmetry_Int_Tables_number   1
_chemical_formula_structural   H5He3
_chemical_formula_sum   'H20 He12'
_cell_volume   406.36539997
_cell_formula_units_Z   4
loop_
 _symmetry_equiv_pos_site_id
 _symmetry_equiv_pos_as_xyz
  1  'x, y, z'
loop_
 _atom_site_type_symbol
 _atom_site_label
 _atom_site_symmetry_multiplicity
 _atom_site_fract_x
 _atom_site_fract_y
 _atom_site_fract_z
 _atom_site_occupancy
  H  H0  1  0.72629029  0.01899549  0.98818359  1
  H  H1  1  0.22485768  0.97958795  0.51161987  1
  H  H2  1  0.27370971  0.98100451  0.01181641  1
  H  H3  1  0.77514232  0.02041205  0.48838013  1
  H  H4  1  0.45215700  0.67429509  0.39082215  1
  H  H5  1  0.95278889  0.32541227  0.10989826  1
  H  H6  1  0.54784300  0.32570491  0.60917785  1
  H  H7  1  0.04721111  0.67458773  0.89010174  1
  H  H8  1  0.84384171  0.61981081  0.67369132  1
  H  H9  1  0.34343487  0.37930292  0.82767277  1
  H  H10  1  0.15615829  0.38018919  0.32630868  1
  H  H11  1  0.65656513  0.62069708  0.17232723  1
  H  H12  1  0.51558362  0.30051717  0.25603964  1
  H  H13  1  0.01556687  0.69923242  0.24485346  1
  H  H14  1  0.48441638  0.69948283  0.74396036  1
  H  H15  1  0.98443313  0.30076758  0.75514654  1
  H  H16  1  0.54420966  0.96510312  0.76159154  1
  H  H17  1  0.04394242  0.03479179  0.73802411  1
  H  H18  1  0.45579034  0.03489688  0.23840846  1
  H  H19  1  0.95605758  0.96520821  0.26197589  1
  He  He20  1  0.22579841  0.87154434  0.23058345  1
  He  He21  1  0.72611228  0.12865562  0.26961361  1
  He  He22  1  0.77420159  0.12845566  0.76941655  1
  He  He23  1  0.27388772  0.87134438  0.73038639  1
  He  He24  1  0.45870264  0.44860858  0.35466061  1
  He  He25  1  0.95857353  0.55267283  0.14472852  1
  He  He26  1  0.54129736  0.55139142  0.64533939  1
  He  He27  1  0.04142647  0.44732717  0.85527148  1
  He  He28  1  0.76514328  0.80940834  0.72539175  1
  He  He29  1  0.26455450  0.18994874  0.77476858  1
  He  He30  1  0.23485672  0.19059166  0.27460825  1
  He  He31  1  0.73544550  0.81005126  0.22523142  1
