# generated using pymatgen
data_HHe2
_symmetry_space_group_name_H-M   'P 1'
_cell_length_a   5.07484541
_cell_length_b   3.56583071
_cell_length_c   5.87868486
_cell_angle_alpha   61.90423602
_cell_angle_beta   90.00000000
_cell_angle_gamma   90.00000000
_symmetry_Int_Tables_number   1
_chemical_formula_structural   HHe2
_chemical_formula_sum   'H2 He4'
_cell_volume   93.84516651
_cell_formula_units_Z   2
loop_
 _symmetry_equiv_pos_site_id
 _symmetry_equiv_pos_as_xyz
  1  'x, y, z'
loop_
 _atom_site_type_symbol
 _atom_site_label
 _atom_site_symmetry_multiplicity
 _atom_site_fract_x
 _atom_site_fract_y
 _atom_site_fract_z
 _atom_site_occupancy
  H  H0  1  0.00000000  -0.00000000  0.00000000  1
  H  H1  1  0.50000000  0.00000000  0.50000000  1
  He  He2  1  0.19387308  0.23926272  0.22352551  1
  He  He3  1  0.69387308  0.76073728  0.27647449  1
  He  He4  1  0.80612692  0.76073728  0.77647449  1
  He  He5  1  0.30612692  0.23926272  0.72352551  1
