# generated using pymatgen
data_H2He
_symmetry_space_group_name_H-M   'P 1'
_cell_length_a   3.14386699
_cell_length_b   3.14386699
_cell_length_c   9.27972282
_cell_angle_alpha   90.00000000
_cell_angle_beta   90.00000000
_cell_angle_gamma   120.00464519
_symmetry_Int_Tables_number   1
_chemical_formula_structural   H2He
_chemical_formula_sum   'H4 He2'
_cell_volume   79.42800131
_cell_formula_units_Z   2
loop_
 _symmetry_equiv_pos_site_id
 _symmetry_equiv_pos_as_xyz
  1  'x, y, z'
loop_
 _atom_site_type_symbol
 _atom_site_label
 _atom_site_symmetry_multiplicity
 _atom_site_fract_x
 _atom_site_fract_y
 _atom_site_fract_z
 _atom_site_occupancy
  H  H0  1  0.33333226  0.66666774  0.39630566  1
  H  H1  1  0.66666774  0.33333226  0.89630566  1
  H  H2  1  0.00001628  -0.00001628  0.60386859  1
  H  H3  1  -0.00001628  0.00001628  0.10386859  1
  He  He4  1  0.33335058  0.66664942  -0.00017425  1
  He  He5  1  0.66664942  0.33335058  0.49982575  1
