# generated using pymatgen
data_H2He
_symmetry_space_group_name_H-M   'P 1'
_cell_length_a   3.92803636
_cell_length_b   3.92801642
_cell_length_c   6.41973649
_cell_angle_alpha   90.00487174
_cell_angle_beta   90.00000000
_cell_angle_gamma   120.00016789
_symmetry_Int_Tables_number   1
_chemical_formula_structural   H2He
_chemical_formula_sum   'H2 He1'
_cell_volume   85.78194533
_cell_formula_units_Z   1
loop_
 _symmetry_equiv_pos_site_id
 _symmetry_equiv_pos_as_xyz
  1  'x, y, z'
loop_
 _atom_site_type_symbol
 _atom_site_label
 _atom_site_symmetry_multiplicity
 _atom_site_fract_x
 _atom_site_fract_y
 _atom_site_fract_z
 _atom_site_occupancy
  H  H0  1  0.66668792  0.33337585  0.25199201  1
  H  H1  1  0.33331208  0.66662415  0.74800799  1
  He  He2  1  0.00000000  0.00000000  0.00000000  1
