# generated using pymatgen
data_H2He3Li(Be4B)2
_symmetry_space_group_name_H-M   'P 1'
_cell_length_a   6.40580026
_cell_length_b   8.17117179
_cell_length_c   14.78613388
_cell_angle_alpha   90.00000000
_cell_angle_beta   90.00000000
_cell_angle_gamma   90.00000000
_symmetry_Int_Tables_number   1
_chemical_formula_structural   H2He3Li(Be4B)2
_chemical_formula_sum   'H8 He12 Li4 Be32 B8'
_cell_volume   773.94904411
_cell_formula_units_Z   4
loop_
 _symmetry_equiv_pos_site_id
 _symmetry_equiv_pos_as_xyz
  1  'x, y, z'
loop_
 _atom_site_type_symbol
 _atom_site_label
 _atom_site_symmetry_multiplicity
 _atom_site_fract_x
 _atom_site_fract_y
 _atom_site_fract_z
 _atom_site_occupancy
  H  H0  1  0.89203079  0.13402200  0.10148340  1
  H  H1  1  0.60796921  0.63402200  0.39851660  1
  H  H2  1  0.89203079  0.36597800  0.89851660  1
  H  H3  1  0.60796921  0.86597800  0.60148340  1
  H  H4  1  0.10796921  0.86597800  0.89851660  1
  H  H5  1  0.39203079  0.36597800  0.60148340  1
  H  H6  1  0.10796921  0.63402200  0.10148340  1
  H  H7  1  0.39203079  0.13402200  0.39851660  1
  He  He8  1  0.03597288  0.37506622  0.05101353  1
  He  He9  1  0.46402712  0.87506622  0.44898647  1
  He  He10  1  0.03597288  0.12493378  0.94898647  1
  He  He11  1  0.46402712  0.62493378  0.55101353  1
  He  He12  1  0.96402712  0.62493378  0.94898647  1
  He  He13  1  0.53597288  0.12493378  0.55101353  1
  He  He14  1  0.96402712  0.87506622  0.05101353  1
  He  He15  1  0.53597288  0.37506622  0.44898647  1
  He  He16  1  0.67663072  0.25000000  0.00000000  1
  He  He17  1  0.82336928  0.75000000  0.50000000  1
  He  He18  1  0.32336928  0.75000000  0.00000000  1
  He  He19  1  0.17663072  0.25000000  0.50000000  1
  Li  Li20  1  0.36968894  0.25000000  -0.00000000  1
  Li  Li21  1  0.13031106  0.75000000  0.50000000  1
  Li  Li22  1  0.63031106  0.75000000  0.00000000  1
  Li  Li23  1  0.86968894  0.25000000  0.50000000  1
  Be  Be24  1  0.25851385  0.10848611  0.11013218  1
  Be  Be25  1  0.24148615  0.60848611  0.38986782  1
  Be  Be26  1  0.25851385  0.39151389  0.88986782  1
  Be  Be27  1  0.24148615  0.89151389  0.61013218  1
  Be  Be28  1  0.74148615  0.89151389  0.88986782  1
  Be  Be29  1  0.75851385  0.39151389  0.61013218  1
  Be  Be30  1  0.74148615  0.60848611  0.11013218  1
  Be  Be31  1  0.75851385  0.10848611  0.38986782  1
  Be  Be32  1  0.59379537  0.97452954  0.11435520  1
  Be  Be33  1  0.90620463  0.47452954  0.38564480  1
  Be  Be34  1  0.59379537  0.52547046  0.88564480  1
  Be  Be35  1  0.90620463  0.02547046  0.61435520  1
  Be  Be36  1  0.40620463  0.02547046  0.88564480  1
  Be  Be37  1  0.09379537  0.52547046  0.61435520  1
  Be  Be38  1  0.40620463  0.47452954  0.11435520  1
  Be  Be39  1  0.09379537  0.97452954  0.38564480  1
  Be  Be40  1  0.28898470  0.83526877  0.17641340  1
  Be  Be41  1  0.21101530  0.33526877  0.32358660  1
  Be  Be42  1  0.28898470  0.66473123  0.82358660  1
  Be  Be43  1  0.21101530  0.16473123  0.67641340  1
  Be  Be44  1  0.71101530  0.16473123  0.82358660  1
  Be  Be45  1  0.78898470  0.66473123  0.67641340  1
  Be  Be46  1  0.71101530  0.33526877  0.17641340  1
  Be  Be47  1  0.78898470  0.83526877  0.32358660  1
  Be  Be48  1  0.43660226  0.06570468  0.25426773  1
  Be  Be49  1  0.06339774  0.56570468  0.24573227  1
  Be  Be50  1  0.43660226  0.43429532  0.74573227  1
  Be  Be51  1  0.06339774  0.93429532  0.75426773  1
  Be  Be52  1  0.56339774  0.93429532  0.74573227  1
  Be  Be53  1  0.93660226  0.43429532  0.75426773  1
  Be  Be54  1  0.56339774  0.56570468  0.25426773  1
  Be  Be55  1  0.93660226  0.06570468  0.24573227  1
  B  B56  1  0.39332037  0.99453846  0.16448456  1
  B  B57  1  0.10667963  0.49453846  0.33551544  1
  B  B58  1  0.39332037  0.50546154  0.83551544  1
  B  B59  1  0.10667963  0.00546154  0.66448456  1
  B  B60  1  0.60667963  0.00546154  0.83551544  1
  B  B61  1  0.89332037  0.50546154  0.66448456  1
  B  B62  1  0.60667963  0.49453846  0.16448456  1
  B  B63  1  0.89332037  0.99453846  0.33551544  1
