# generated using pymatgen
data_H2He4Li
_symmetry_space_group_name_H-M   'P 1'
_cell_length_a   12.65746722
_cell_length_b   12.65746722
_cell_length_c   12.65746722
_cell_angle_alpha   17.73196871
_cell_angle_beta   17.73196871
_cell_angle_gamma   17.73196871
_symmetry_Int_Tables_number   1
_chemical_formula_structural   H2He4Li
_chemical_formula_sum   'H2 He4 Li1'
_cell_volume   164.20326860
_cell_formula_units_Z   1
loop_
 _symmetry_equiv_pos_site_id
 _symmetry_equiv_pos_as_xyz
  1  'x, y, z'
loop_
 _atom_site_type_symbol
 _atom_site_label
 _atom_site_symmetry_multiplicity
 _atom_site_fract_x
 _atom_site_fract_y
 _atom_site_fract_z
 _atom_site_occupancy
  H  H0  1  0.16209102  0.16209102  0.16209102  1
  H  H1  1  0.93582054  0.93582054  0.93582054  1
  He  He2  1  0.04498696  0.04498696  0.04498696  1
  He  He3  1  0.29798018  0.29798018  0.29798018  1
  He  He4  1  0.46186859  0.46186859  0.46186859  1
  He  He5  1  0.87017423  0.87017423  0.87017423  1
  Li  Li6  1  0.39107849  0.39107849  0.39107849  1
