# generated using pymatgen
data_H20He2Li
_symmetry_space_group_name_H-M   'P 1'
_cell_length_a   10.33631031
_cell_length_b   10.33631031
_cell_length_c   10.33631031
_cell_angle_alpha   60.00000000
_cell_angle_beta   60.00000000
_cell_angle_gamma   60.00000000
_symmetry_Int_Tables_number   1
_chemical_formula_structural   H20He2Li
_chemical_formula_sum   'H40 He4 Li2'
_cell_volume   780.87517985
_cell_formula_units_Z   2
loop_
 _symmetry_equiv_pos_site_id
 _symmetry_equiv_pos_as_xyz
  1  'x, y, z'
loop_
 _atom_site_type_symbol
 _atom_site_label
 _atom_site_symmetry_multiplicity
 _atom_site_fract_x
 _atom_site_fract_y
 _atom_site_fract_z
 _atom_site_occupancy
  H  H0  1  0.73782433  0.23782433  0.51217567  1
  H  H1  1  0.01217567  0.51217567  0.23782433  1
  H  H2  1  0.73782433  0.51217567  0.23782433  1
  H  H3  1  0.01217567  0.23782433  0.51217567  1
  H  H4  1  0.73782433  0.51217567  0.51217567  1
  H  H5  1  0.01217567  0.23782433  0.23782433  1
  H  H6  1  0.98782433  0.76217567  0.48782433  1
  H  H7  1  0.26217567  0.48782433  0.76217567  1
  H  H8  1  0.98782433  0.48782433  0.76217567  1
  H  H9  1  0.26217567  0.76217567  0.48782433  1
  H  H10  1  0.26217567  0.48782433  0.48782433  1
  H  H11  1  0.98782433  0.76217567  0.76217567  1
  H  H12  1  0.44304841  0.67499823  0.67499823  1
  H  H13  1  0.70695513  0.67499823  0.67499823  1
  H  H14  1  0.17499823  0.20695513  0.94304841  1
  H  H15  1  0.17499823  0.94304841  0.20695513  1
  H  H16  1  0.44304841  0.20695513  0.67499823  1
  H  H17  1  0.70695513  0.94304841  0.67499823  1
  H  H18  1  0.17499823  0.67499823  0.20695513  1
  H  H19  1  0.17499823  0.67499823  0.94304841  1
  H  H20  1  0.44304841  0.67499823  0.20695513  1
  H  H21  1  0.70695513  0.67499823  0.94304841  1
  H  H22  1  0.17499823  0.94304841  0.67499823  1
  H  H23  1  0.17499823  0.20695513  0.67499823  1
  H  H24  1  0.29304487  0.32500177  0.32500177  1
  H  H25  1  0.55695159  0.32500177  0.32500177  1
  H  H26  1  0.82500177  0.79304487  0.05695159  1
  H  H27  1  0.82500177  0.05695159  0.79304487  1
  H  H28  1  0.82500177  0.79304487  0.32500177  1
  H  H29  1  0.82500177  0.05695159  0.32500177  1
  H  H30  1  0.55695159  0.32500177  0.79304487  1
  H  H31  1  0.29304487  0.32500177  0.05695159  1
  H  H32  1  0.82500177  0.32500177  0.79304487  1
  H  H33  1  0.82500177  0.32500177  0.05695159  1
  H  H34  1  0.29304487  0.05695159  0.32500177  1
  H  H35  1  0.55695159  0.79304487  0.32500177  1
  H  H36  1  0.00000000  -0.00000000  -0.00000000  1
  H  H37  1  0.50000000  0.00000000  -0.00000000  1
  H  H38  1  0.50000000  -0.00000000  0.50000000  1
  H  H39  1  0.50000000  0.50000000  0.00000000  1
  He  He40  1  0.50000000  0.50000000  0.50000000  1
  He  He41  1  0.00000000  0.50000000  0.50000000  1
  He  He42  1  0.00000000  0.50000000  0.00000000  1
  He  He43  1  -0.00000000  0.00000000  0.50000000  1
  Li  Li44  1  0.37500000  0.87500000  0.87500000  1
  Li  Li45  1  0.62500000  0.12500000  0.12500000  1
