# generated using pymatgen
data_H4He2Li5Be4
_symmetry_space_group_name_H-M   'P 1'
_cell_length_a   10.29249509
_cell_length_b   10.29249509
_cell_length_c   10.29249509
_cell_angle_alpha   93.67086963
_cell_angle_beta   93.67086963
_cell_angle_gamma   150.68605320
_symmetry_Int_Tables_number   1
_chemical_formula_structural   H4He2Li5Be4
_chemical_formula_sum   'H4 He2 Li5 Be4'
_cell_volume   516.45307119
_cell_formula_units_Z   1
loop_
 _symmetry_equiv_pos_site_id
 _symmetry_equiv_pos_as_xyz
  1  'x, y, z'
loop_
 _atom_site_type_symbol
 _atom_site_label
 _atom_site_symmetry_multiplicity
 _atom_site_fract_x
 _atom_site_fract_y
 _atom_site_fract_z
 _atom_site_occupancy
  H  H0  1  0.75195064  0.93921421  0.69116485  1
  H  H1  1  0.24804936  0.06078579  0.30883515  1
  H  H2  1  0.06078579  0.75195064  0.81273643  1
  H  H3  1  0.93921421  0.24804936  0.18726357  1
  He  He4  1  0.75000000  0.25000000  0.50000000  1
  He  He5  1  0.25000000  0.75000000  0.50000000  1
  Li  Li6  1  0.00000000  0.00000000  0.00000000  1
  Li  Li7  1  0.63107677  0.70249656  0.33357333  1
  Li  Li8  1  0.36892323  0.29750344  0.66642667  1
  Li  Li9  1  0.29750344  0.63107677  0.92858021  1
  Li  Li10  1  0.70249656  0.36892323  0.07141979  1
  Be  Be11  1  0.89516342  0.59023584  0.48539925  1
  Be  Be12  1  0.10483658  0.40976416  0.51460075  1
  Be  Be13  1  0.40976416  0.89516342  0.30492758  1
  Be  Be14  1  0.59023584  0.10483658  0.69507242  1
