# generated using pymatgen
data_H2He
_symmetry_space_group_name_H-M   'P 1'
_cell_length_a   6.14606525
_cell_length_b   6.14572511
_cell_length_c   8.11476433
_cell_angle_alpha   90.00000000
_cell_angle_beta   90.00000000
_cell_angle_gamma   120.00183084
_symmetry_Int_Tables_number   1
_chemical_formula_structural   H2He
_chemical_formula_sum   'H4 He2'
_cell_volume   265.44150362
_cell_formula_units_Z   2
loop_
 _symmetry_equiv_pos_site_id
 _symmetry_equiv_pos_as_xyz
  1  'x, y, z'
loop_
 _atom_site_type_symbol
 _atom_site_label
 _atom_site_symmetry_multiplicity
 _atom_site_fract_x
 _atom_site_fract_y
 _atom_site_fract_z
 _atom_site_occupancy
  H  H0  1  0.00000000  0.00000000  0.00000000  1
  H  H1  1  0.00000000  0.00000000  0.50000000  1
  H  H2  1  0.66666990  0.33333980  0.75000000  1
  H  H3  1  0.33333010  0.66666020  0.25000000  1
  He  He4  1  0.66667832  0.33335664  0.25000000  1
  He  He5  1  0.33332168  0.66664336  0.75000000  1
