# generated using pymatgen
data_H8He2Li
_symmetry_space_group_name_H-M   'P 1'
_cell_length_a   6.01392107
_cell_length_b   8.84250354
_cell_length_c   12.81405569
_cell_angle_alpha   90.00000000
_cell_angle_beta   90.00000000
_cell_angle_gamma   90.00000000
_symmetry_Int_Tables_number   1
_chemical_formula_structural   H8He2Li
_chemical_formula_sum   'H32 He8 Li4'
_cell_volume   681.42737016
_cell_formula_units_Z   4
loop_
 _symmetry_equiv_pos_site_id
 _symmetry_equiv_pos_as_xyz
  1  'x, y, z'
loop_
 _atom_site_type_symbol
 _atom_site_label
 _atom_site_symmetry_multiplicity
 _atom_site_fract_x
 _atom_site_fract_y
 _atom_site_fract_z
 _atom_site_occupancy
  H  H0  1  0.05139444  0.39762735  0.88381129  1
  H  H1  1  0.94860556  0.10237265  0.38381129  1
  H  H2  1  0.55139444  0.60237265  0.11618871  1
  H  H3  1  0.44860556  0.89762735  0.61618871  1
  H  H4  1  0.94860556  0.60237265  0.11618871  1
  H  H5  1  0.05139444  0.89762735  0.61618871  1
  H  H6  1  0.44860556  0.39762735  0.88381129  1
  H  H7  1  0.55139444  0.10237265  0.38381129  1
  H  H8  1  0.05092083  0.20751494  0.75249737  1
  H  H9  1  0.94907917  0.29248506  0.25249737  1
  H  H10  1  0.55092083  0.79248506  0.24750263  1
  H  H11  1  0.44907917  0.70751494  0.74750263  1
  H  H12  1  0.94907917  0.79248506  0.24750263  1
  H  H13  1  0.05092083  0.70751494  0.74750263  1
  H  H14  1  0.44907917  0.20751494  0.75249737  1
  H  H15  1  0.55092083  0.29248506  0.25249737  1
  H  H16  1  0.52459231  0.13504961  0.93400883  1
  H  H17  1  0.47540769  0.36495039  0.43400883  1
  H  H18  1  0.02459231  0.86495039  0.06599117  1
  H  H19  1  0.97540769  0.63504961  0.56599117  1
  H  H20  1  0.47540769  0.86495039  0.06599117  1
  H  H21  1  0.52459231  0.63504961  0.56599117  1
  H  H22  1  0.97540769  0.13504961  0.93400883  1
  H  H23  1  0.02459231  0.36495039  0.43400883  1
  H  H24  1  0.25000000  0.00159695  0.84167346  1
  H  H25  1  0.75000000  0.49840305  0.34167346  1
  H  H26  1  0.75000000  0.99840305  0.15832654  1
  H  H27  1  0.25000000  0.50159695  0.65832654  1
  H  H28  1  0.25000000  0.77016466  0.47276290  1
  H  H29  1  0.75000000  0.72983534  0.97276290  1
  H  H30  1  0.75000000  0.22983534  0.52723710  1
  H  H31  1  0.25000000  0.27016466  0.02723710  1
  He  He32  1  0.25000000  0.17053142  0.55931838  1
  He  He33  1  0.75000000  0.32946858  0.05931838  1
  He  He34  1  0.75000000  0.82946858  0.44068162  1
  He  He35  1  0.25000000  0.67053142  0.94068162  1
  He  He36  1  0.25000000  0.04692790  0.21171677  1
  He  He37  1  0.75000000  0.45307210  0.71171677  1
  He  He38  1  0.75000000  0.95307210  0.78828323  1
  He  He39  1  0.25000000  0.54692790  0.28828323  1
  Li  Li40  1  0.25000000  0.21787065  0.87659052  1
  Li  Li41  1  0.75000000  0.28212935  0.37659052  1
  Li  Li42  1  0.75000000  0.78212935  0.12340948  1
  Li  Li43  1  0.25000000  0.71787065  0.62340948  1
