# generated using pymatgen
data_H2He2Li5Be
_symmetry_space_group_name_H-M   'P 1'
_cell_length_a   7.17176011
_cell_length_b   7.17176011
_cell_length_c   9.44431102
_cell_angle_alpha   65.14965469
_cell_angle_beta   65.14965469
_cell_angle_gamma   33.33856227
_symmetry_Int_Tables_number   1
_chemical_formula_structural   H2He2Li5Be
_chemical_formula_sum   'H2 He2 Li5 Be1'
_cell_volume   239.90709739
_cell_formula_units_Z   1
loop_
 _symmetry_equiv_pos_site_id
 _symmetry_equiv_pos_as_xyz
  1  'x, y, z'
loop_
 _atom_site_type_symbol
 _atom_site_label
 _atom_site_symmetry_multiplicity
 _atom_site_fract_x
 _atom_site_fract_y
 _atom_site_fract_z
 _atom_site_occupancy
  H  H0  1  0.17563691  0.17563691  0.30272053  1
  H  H1  1  0.82436309  0.82436309  0.69727947  1
  He  He2  1  0.55423483  0.55423483  0.70114208  1
  He  He3  1  0.44576517  0.44576517  0.29885792  1
  Li  Li4  1  0.14588219  0.14588219  0.69238028  1
  Li  Li5  1  0.85411781  0.85411781  0.30761972  1
  Li  Li6  1  0.38799141  0.38799141  0.93584924  1
  Li  Li7  1  0.61200859  0.61200859  0.06415076  1
  Li  Li8  1  0.50000000  0.50000000  0.50000000  1
  Be  Be9  1  0.00000000  0.00000000  0.00000000  1
