# generated using pymatgen
data_H2He
_symmetry_space_group_name_H-M   'P 1'
_cell_length_a   8.69283008
_cell_length_b   8.69283008
_cell_length_c   5.20415035
_cell_angle_alpha   90.00000000
_cell_angle_beta   90.00000000
_cell_angle_gamma   90.00000000
_symmetry_Int_Tables_number   1
_chemical_formula_structural   H2He
_chemical_formula_sum   'H16 He8'
_cell_volume   393.25315610
_cell_formula_units_Z   8
loop_
 _symmetry_equiv_pos_site_id
 _symmetry_equiv_pos_as_xyz
  1  'x, y, z'
loop_
 _atom_site_type_symbol
 _atom_site_label
 _atom_site_symmetry_multiplicity
 _atom_site_fract_x
 _atom_site_fract_y
 _atom_site_fract_z
 _atom_site_occupancy
  H  H0  1  0.13753905  0.36246095  0.25000000  1
  H  H1  1  0.86246095  0.63753905  0.25000000  1
  H  H2  1  0.63753905  0.13753905  0.75000000  1
  H  H3  1  0.36246095  0.86246095  0.75000000  1
  H  H4  1  0.86246095  0.63753905  0.75000000  1
  H  H5  1  0.13753905  0.36246095  0.75000000  1
  H  H6  1  0.36246095  0.86246095  0.25000000  1
  H  H7  1  0.63753905  0.13753905  0.25000000  1
  H  H8  1  0.94626584  0.17860982  -0.00000000  1
  H  H9  1  0.05373416  0.82139018  0.00000000  1
  H  H10  1  0.82139018  0.94626584  0.50000000  1
  H  H11  1  0.17860982  0.05373416  0.50000000  1
  H  H12  1  0.55373416  0.67860982  0.00000000  1
  H  H13  1  0.44626584  0.32139018  -0.00000000  1
  H  H14  1  0.67860982  0.44626584  0.50000000  1
  H  H15  1  0.32139018  0.55373416  0.50000000  1
  He  He16  1  0.13286776  0.21294353  -0.00000000  1
  He  He17  1  0.86713224  0.78705647  -0.00000000  1
  He  He18  1  0.78705647  0.13286776  0.50000000  1
  He  He19  1  0.21294353  0.86713224  0.50000000  1
  He  He20  1  0.36713224  0.71294353  0.00000000  1
  He  He21  1  0.63286776  0.28705647  0.00000000  1
  He  He22  1  0.71294353  0.63286776  0.50000000  1
  He  He23  1  0.28705647  0.36713224  0.50000000  1
