# generated using pymatgen
data_H6He11Li2
_symmetry_space_group_name_H-M   'P 1'
_cell_length_a   4.93174531
_cell_length_b   8.48755697
_cell_length_c   22.17592704
_cell_angle_alpha   90.00000000
_cell_angle_beta   90.00000000
_cell_angle_gamma   90.00000000
_symmetry_Int_Tables_number   1
_chemical_formula_structural   H6He11Li2
_chemical_formula_sum   'H24 He44 Li8'
_cell_volume   928.25036020
_cell_formula_units_Z   4
loop_
 _symmetry_equiv_pos_site_id
 _symmetry_equiv_pos_as_xyz
  1  'x, y, z'
loop_
 _atom_site_type_symbol
 _atom_site_label
 _atom_site_symmetry_multiplicity
 _atom_site_fract_x
 _atom_site_fract_y
 _atom_site_fract_z
 _atom_site_occupancy
  H  H0  1  0.00000000  0.50000000  0.00000000  1
  H  H1  1  0.50000000  0.00000000  0.50000000  1
  H  H2  1  0.50000000  0.00000000  0.00000000  1
  H  H3  1  0.00000000  0.50000000  0.50000000  1
  H  H4  1  0.50000000  0.33312072  0.00000000  1
  H  H5  1  0.00000000  0.16687928  0.50000000  1
  H  H6  1  0.50000000  0.66687928  0.00000000  1
  H  H7  1  0.00000000  0.83312072  0.50000000  1
  H  H8  1  0.88457810  0.70517834  0.21377095  1
  H  H9  1  0.11542190  0.70517834  0.78622905  1
  H  H10  1  0.38457810  0.79482166  0.28622905  1
  H  H11  1  0.61542190  0.79482166  0.71377095  1
  H  H12  1  0.11542190  0.29482166  0.78622905  1
  H  H13  1  0.88457810  0.29482166  0.21377095  1
  H  H14  1  0.61542190  0.20517834  0.71377095  1
  H  H15  1  0.38457810  0.20517834  0.28622905  1
  H  H16  1  0.99209077  0.82084333  0.07418904  1
  H  H17  1  0.00790923  0.82084333  0.92581096  1
  H  H18  1  0.49209077  0.67915667  0.42581096  1
  H  H19  1  0.50790923  0.67915667  0.57418904  1
  H  H20  1  0.00790923  0.17915667  0.92581096  1
  H  H21  1  0.99209077  0.17915667  0.07418904  1
  H  H22  1  0.50790923  0.32084333  0.57418904  1
  H  H23  1  0.49209077  0.32084333  0.42581096  1
  He  He24  1  0.17402214  0.00000000  0.05602707  1
  He  He25  1  0.82597786  -0.00000000  0.94397293  1
  He  He26  1  0.67402214  0.50000000  0.44397293  1
  He  He27  1  0.32597786  0.50000000  0.55602707  1
  He  He28  1  0.43932277  -0.00000000  0.29752842  1
  He  He29  1  0.56067723  -0.00000000  0.70247158  1
  He  He30  1  0.93932277  0.50000000  0.20247158  1
  He  He31  1  0.06067723  0.50000000  0.79752842  1
  He  He32  1  0.67789448  0.15803576  0.45182101  1
  He  He33  1  0.32210552  0.15803576  0.54817899  1
  He  He34  1  0.17789448  0.34196424  0.04817899  1
  He  He35  1  0.82210552  0.34196424  0.95182101  1
  He  He36  1  0.32210552  0.84196424  0.54817899  1
  He  He37  1  0.67789448  0.84196424  0.45182101  1
  He  He38  1  0.82210552  0.65803576  0.95182101  1
  He  He39  1  0.17789448  0.65803576  0.04817899  1
  He  He40  1  0.50627777  0.68222770  0.34665656  1
  He  He41  1  0.49372223  0.68222770  0.65334344  1
  He  He42  1  0.00627777  0.81777230  0.15334344  1
  He  He43  1  0.99372223  0.81777230  0.84665656  1
  He  He44  1  0.49372223  0.31777230  0.65334344  1
  He  He45  1  0.50627777  0.31777230  0.34665656  1
  He  He46  1  0.99372223  0.18222770  0.84665656  1
  He  He47  1  0.00627777  0.18222770  0.15334344  1
  He  He48  1  0.17080010  -0.00000000  0.45510242  1
  He  He49  1  0.82919990  0.00000000  0.54489758  1
  He  He50  1  0.67080010  0.50000000  0.04489758  1
  He  He51  1  0.32919990  0.50000000  0.95510242  1
  He  He52  1  0.34877266  0.16290844  0.95150529  1
  He  He53  1  0.65122734  0.16290844  0.04849471  1
  He  He54  1  0.84877266  0.33709156  0.54849471  1
  He  He55  1  0.15122734  0.33709156  0.45150529  1
  He  He56  1  0.65122734  0.83709156  0.04849471  1
  He  He57  1  0.34877266  0.83709156  0.95150529  1
  He  He58  1  0.15122734  0.66290844  0.45150529  1
  He  He59  1  0.84877266  0.66290844  0.54849471  1
  He  He60  1  0.02922661  0.76127865  0.28405283  1
  He  He61  1  0.97077339  0.76127865  0.71594717  1
  He  He62  1  0.52922661  0.73872135  0.21594717  1
  He  He63  1  0.47077339  0.73872135  0.78405283  1
  He  He64  1  0.97077339  0.23872135  0.71594717  1
  He  He65  1  0.02922661  0.23872135  0.28405283  1
  He  He66  1  0.47077339  0.26127865  0.78405283  1
  He  He67  1  0.52922661  0.26127865  0.21594717  1
  Li  Li68  1  0.88419167  -0.00000000  0.36168945  1
  Li  Li69  1  0.11580833  0.00000000  0.63831055  1
  Li  Li70  1  0.38419167  0.50000000  0.13831055  1
  Li  Li71  1  0.61580833  0.50000000  0.86168945  1
  Li  Li72  1  0.45915991  0.00000000  0.15445712  1
  Li  Li73  1  0.54084009  0.00000000  0.84554288  1
  Li  Li74  1  0.95915991  0.50000000  0.34554288  1
  Li  Li75  1  0.04084009  0.50000000  0.65445712  1
