# generated using pymatgen
data_HHeLi
_symmetry_space_group_name_H-M   'P 1'
_cell_length_a   5.02148552
_cell_length_b   5.02148552
_cell_length_c   8.08127330
_cell_angle_alpha   90.00000000
_cell_angle_beta   90.00000000
_cell_angle_gamma   120.00370169
_symmetry_Int_Tables_number   1
_chemical_formula_structural   HHeLi
_chemical_formula_sum   'H2 He2 Li2'
_cell_volume   176.46503018
_cell_formula_units_Z   2
loop_
 _symmetry_equiv_pos_site_id
 _symmetry_equiv_pos_as_xyz
  1  'x, y, z'
loop_
 _atom_site_type_symbol
 _atom_site_label
 _atom_site_symmetry_multiplicity
 _atom_site_fract_x
 _atom_site_fract_y
 _atom_site_fract_z
 _atom_site_occupancy
  H  H0  1  0.99999411  0.00000589  0.25166320  1
  H  H1  1  0.00000589  0.99999411  0.75166320  1
  He  He2  1  0.33334381  0.66665619  0.05456912  1
  He  He3  1  0.66665619  0.33334381  0.55456912  1
  Li  Li4  1  0.33334804  0.66665196  0.46376769  1
  Li  Li5  1  0.66665196  0.33334804  0.96376769  1
