# generated using pymatgen
data_HHe4Li
_symmetry_space_group_name_H-M   'P 1'
_cell_length_a   7.20043185
_cell_length_b   6.96143655
_cell_length_c   7.07358158
_cell_angle_alpha   84.90651802
_cell_angle_beta   90.00000000
_cell_angle_gamma   90.00000000
_symmetry_Int_Tables_number   1
_chemical_formula_structural   HHe4Li
_chemical_formula_sum   'H4 He16 Li4'
_cell_volume   353.16562986
_cell_formula_units_Z   4
loop_
 _symmetry_equiv_pos_site_id
 _symmetry_equiv_pos_as_xyz
  1  'x, y, z'
loop_
 _atom_site_type_symbol
 _atom_site_label
 _atom_site_symmetry_multiplicity
 _atom_site_fract_x
 _atom_site_fract_y
 _atom_site_fract_z
 _atom_site_occupancy
  H  H0  1  0.55117185  0.24091009  0.68804957  1
  H  H1  1  0.05117185  0.25908991  0.31195043  1
  H  H2  1  0.44882815  0.75908991  0.31195043  1
  H  H3  1  0.94882815  0.74091009  0.68804957  1
  He  He4  1  0.42388262  0.38673317  0.83037235  1
  He  He5  1  -0.07611738  0.11326683  0.16962765  1
  He  He6  1  0.57611738  0.61326683  0.16962765  1
  He  He7  1  0.07611738  0.88673317  0.83037235  1
  He  He8  1  0.40267919  0.18972780  0.48031073  1
  He  He9  1  0.90267919  0.31027220  0.51968927  1
  He  He10  1  0.59732081  0.81027220  0.51968927  1
  He  He11  1  0.09732081  0.68972780  0.48031073  1
  He  He12  1  0.63868705  0.05769338  0.84088539  1
  He  He13  1  0.13868705  0.44230662  0.15911461  1
  He  He14  1  0.36131295  0.94230662  0.15911461  1
  He  He15  1  0.86131295  0.55769338  0.84088539  1
  He  He16  1  0.70513380  0.31357289  0.47910227  1
  He  He17  1  0.20513380  0.18642711  0.52089773  1
  He  He18  1  0.29486620  0.68642711  0.52089773  1
  He  He19  1  0.79486620  0.81357289  0.47910227  1
  Li  Li20  1  0.56635562  0.24817822  0.15360648  1
  Li  Li21  1  0.06635562  0.25182178  0.84639352  1
  Li  Li22  1  0.43364438  0.75182178  0.84639352  1
  Li  Li23  1  0.93364438  0.74817822  0.15360648  1
