# generated using pymatgen
data_H3HeLi2
_symmetry_space_group_name_H-M   'P 1'
_cell_length_a   6.38833070
_cell_length_b   6.38833070
_cell_length_c   8.16312581
_cell_angle_alpha   82.39327518
_cell_angle_beta   82.39327518
_cell_angle_gamma   97.36965379
_symmetry_Int_Tables_number   1
_chemical_formula_structural   H3HeLi2
_chemical_formula_sum   'H6 He2 Li4'
_cell_volume   323.68214065
_cell_formula_units_Z   2
loop_
 _symmetry_equiv_pos_site_id
 _symmetry_equiv_pos_as_xyz
  1  'x, y, z'
loop_
 _atom_site_type_symbol
 _atom_site_label
 _atom_site_symmetry_multiplicity
 _atom_site_fract_x
 _atom_site_fract_y
 _atom_site_fract_z
 _atom_site_occupancy
  H  H0  1  0.20940342  0.79059658  0.25000000  1
  H  H1  1  0.79059658  0.20940342  0.75000000  1
  H  H2  1  0.91977542  0.82537496  0.47266169  1
  H  H3  1  0.17462504  0.08022458  0.02733831  1
  H  H4  1  0.08022458  0.17462504  0.52733831  1
  H  H5  1  0.82537496  0.91977542  0.97266169  1
  He  He6  1  0.63688131  0.36311869  0.25000000  1
  He  He7  1  0.36311869  0.63688131  0.75000000  1
  Li  Li8  1  0.38867773  0.08675219  0.70703725  1
  Li  Li9  1  0.91324781  0.61132227  0.79296275  1
  Li  Li10  1  0.61132227  0.91324781  0.29296275  1
  Li  Li11  1  0.08675219  0.38867773  0.20703725  1
