# generated using pymatgen
data_HHeLi
_symmetry_space_group_name_H-M   'P 1'
_cell_length_a   5.83127743
_cell_length_b   5.84128228
_cell_length_c   18.11003941
_cell_angle_alpha   90.00000000
_cell_angle_beta   90.00000000
_cell_angle_gamma   90.00000000
_symmetry_Int_Tables_number   1
_chemical_formula_structural   HHeLi
_chemical_formula_sum   'H8 He8 Li8'
_cell_volume   616.86665213
_cell_formula_units_Z   8
loop_
 _symmetry_equiv_pos_site_id
 _symmetry_equiv_pos_as_xyz
  1  'x, y, z'
loop_
 _atom_site_type_symbol
 _atom_site_label
 _atom_site_symmetry_multiplicity
 _atom_site_fract_x
 _atom_site_fract_y
 _atom_site_fract_z
 _atom_site_occupancy
  H  H0  1  0.03161760  0.28497598  0.99795863  1
  H  H1  1  0.96838240  0.21502402  0.49795863  1
  H  H2  1  0.53161760  0.71502402  0.00204137  1
  H  H3  1  0.46838240  0.78497598  0.50204137  1
  H  H4  1  0.96838240  0.71502402  0.00204137  1
  H  H5  1  0.03161760  0.78497598  0.50204137  1
  H  H6  1  0.46838240  0.28497598  0.99795863  1
  H  H7  1  0.53161760  0.21502402  0.49795863  1
  He  He8  1  0.25000000  0.01142103  0.64391194  1
  He  He9  1  0.75000000  0.48857897  0.14391194  1
  He  He10  1  0.75000000  0.98857897  0.35608806  1
  He  He11  1  0.25000000  0.51142103  0.85608806  1
  He  He12  1  0.25000000  0.48897321  0.36190531  1
  He  He13  1  0.75000000  0.01102679  0.86190531  1
  He  He14  1  0.75000000  0.51102679  0.63809469  1
  He  He15  1  0.25000000  0.98897321  0.13809469  1
  Li  Li16  1  0.25000000  0.00883904  0.81615332  1
  Li  Li17  1  0.75000000  0.49116096  0.31615332  1
  Li  Li18  1  0.75000000  0.99116096  0.18384668  1
  Li  Li19  1  0.25000000  0.50883904  0.68384668  1
  Li  Li20  1  0.25000000  0.49026416  0.18830132  1
  Li  Li21  1  0.75000000  0.00973584  0.68830132  1
  Li  Li22  1  0.75000000  0.50973584  0.81169868  1
  Li  Li23  1  0.25000000  0.99026416  0.31169868  1
