# generated using pymatgen
data_H2He3Li2
_symmetry_space_group_name_H-M   'P 1'
_cell_length_a   7.96740181
_cell_length_b   7.96740181
_cell_length_c   7.96740181
_cell_angle_alpha   109.47122063
_cell_angle_beta   109.47122063
_cell_angle_gamma   109.47122063
_symmetry_Int_Tables_number   1
_chemical_formula_structural   H2He3Li2
_chemical_formula_sum   'H4 He6 Li4'
_cell_volume   389.33932327
_cell_formula_units_Z   2
loop_
 _symmetry_equiv_pos_site_id
 _symmetry_equiv_pos_as_xyz
  1  'x, y, z'
loop_
 _atom_site_type_symbol
 _atom_site_label
 _atom_site_symmetry_multiplicity
 _atom_site_fract_x
 _atom_site_fract_y
 _atom_site_fract_z
 _atom_site_occupancy
  H  H0  1  0.00000000  -0.00000000  0.98064287  1
  H  H1  1  0.51935713  0.01935713  0.51935713  1
  H  H2  1  0.98064287  0.50000000  0.50000000  1
  H  H3  1  0.50000000  0.48064287  -0.00000000  1
  He  He4  1  0.25000000  0.94598341  0.69598341  1
  He  He5  1  0.75000000  0.55401659  0.80401659  1
  He  He6  1  0.69598341  0.75000000  0.44598341  1
  He  He7  1  0.80401659  0.25000000  0.05401659  1
  He  He8  1  0.05401659  0.30401659  0.75000000  1
  He  He9  1  0.44598341  0.19598341  0.25000000  1
  Li  Li10  1  -0.00000000  0.00000000  0.47346959  1
  Li  Li11  1  0.02653041  0.52653041  0.02653041  1
  Li  Li12  1  0.47346959  0.50000000  0.50000000  1
  Li  Li13  1  0.50000000  0.97346959  0.00000000  1
