# generated using pymatgen
data_H2He3Li
_symmetry_space_group_name_H-M   'P 1'
_cell_length_a   5.32463675
_cell_length_b   5.32463675
_cell_length_c   5.46767603
_cell_angle_alpha   78.81457702
_cell_angle_beta   78.81457702
_cell_angle_gamma   118.37450836
_symmetry_Int_Tables_number   1
_chemical_formula_structural   H2He3Li
_chemical_formula_sum   'H4 He6 Li2'
_cell_volume   126.23542982
_cell_formula_units_Z   2
loop_
 _symmetry_equiv_pos_site_id
 _symmetry_equiv_pos_as_xyz
  1  'x, y, z'
loop_
 _atom_site_type_symbol
 _atom_site_label
 _atom_site_symmetry_multiplicity
 _atom_site_fract_x
 _atom_site_fract_y
 _atom_site_fract_z
 _atom_site_occupancy
  H  H0  1  0.42359587  0.57640413  0.25000000  1
  H  H1  1  0.57640413  0.42359587  0.75000000  1
  H  H2  1  0.73995975  0.26004025  0.25000000  1
  H  H3  1  0.26004025  0.73995975  0.75000000  1
  He  He4  1  -0.00000000  0.50000000  0.50000000  1
  He  He5  1  0.50000000  0.00000000  0.00000000  1
  He  He6  1  0.30670796  0.15559694  0.48592701  1
  He  He7  1  0.84440306  0.69329204  0.01407299  1
  He  He8  1  0.69329204  0.84440306  0.51407299  1
  He  He9  1  0.15559694  0.30670796  0.98592701  1
  Li  Li10  1  0.09072324  0.90927676  0.25000000  1
  Li  Li11  1  0.90927676  0.09072324  0.75000000  1
