# generated using pymatgen
data_HHe4Li2
_symmetry_space_group_name_H-M   'P 1'
_cell_length_a   4.60212894
_cell_length_b   11.68565597
_cell_length_c   15.82273867
_cell_angle_alpha   90.00000000
_cell_angle_beta   90.00000000
_cell_angle_gamma   90.00000000
_symmetry_Int_Tables_number   1
_chemical_formula_structural   HHe4Li2
_chemical_formula_sum   'H4 He16 Li8'
_cell_volume   850.92940948
_cell_formula_units_Z   4
loop_
 _symmetry_equiv_pos_site_id
 _symmetry_equiv_pos_as_xyz
  1  'x, y, z'
loop_
 _atom_site_type_symbol
 _atom_site_label
 _atom_site_symmetry_multiplicity
 _atom_site_fract_x
 _atom_site_fract_y
 _atom_site_fract_z
 _atom_site_occupancy
  H  H0  1  0.25000000  0.77758541  0.32220395  1
  H  H1  1  0.75000000  0.72241459  0.82220395  1
  H  H2  1  0.75000000  0.22241459  0.67779605  1
  H  H3  1  0.25000000  0.27758541  0.17779605  1
  He  He4  1  0.25000000  0.17437766  0.83003182  1
  He  He5  1  0.75000000  0.32562234  0.33003182  1
  He  He6  1  0.75000000  0.82562234  0.16996818  1
  He  He7  1  0.25000000  0.67437766  0.66996818  1
  He  He8  1  0.25000000  0.16751232  0.52330559  1
  He  He9  1  0.75000000  0.33248768  0.02330559  1
  He  He10  1  0.75000000  0.83248768  0.47669441  1
  He  He11  1  0.25000000  0.66751232  0.97669441  1
  He  He12  1  0.25000000  0.04509907  0.28990459  1
  He  He13  1  0.75000000  0.45490093  0.78990459  1
  He  He14  1  0.75000000  0.95490093  0.71009541  1
  He  He15  1  0.25000000  0.54509907  0.21009541  1
  He  He16  1  0.25000000  0.37501652  0.57021267  1
  He  He17  1  0.75000000  0.12498348  0.07021267  1
  He  He18  1  0.75000000  0.62498348  0.42978733  1
  He  He19  1  0.25000000  0.87501652  0.92978733  1
  Li  Li20  1  0.25000000  0.44937847  0.38598201  1
  Li  Li21  1  0.75000000  0.05062153  0.88598201  1
  Li  Li22  1  0.75000000  0.55062153  0.61401799  1
  Li  Li23  1  0.25000000  0.94937847  0.11401799  1
  Li  Li24  1  0.25000000  0.39918054  0.89178404  1
  Li  Li25  1  0.75000000  0.10081946  0.39178404  1
  Li  Li26  1  0.75000000  0.60081946  0.10821596  1
  Li  Li27  1  0.25000000  0.89918054  0.60821596  1
