# generated using pymatgen
data_H3He
_symmetry_space_group_name_H-M   'P 1'
_cell_length_a   3.47075884
_cell_length_b   5.07362657
_cell_length_c   9.21886072
_cell_angle_alpha   95.88847149
_cell_angle_beta   90.00000000
_cell_angle_gamma   90.00000000
_symmetry_Int_Tables_number   1
_chemical_formula_structural   H3He
_chemical_formula_sum   'H6 He2'
_cell_volume   161.48142004
_cell_formula_units_Z   2
loop_
 _symmetry_equiv_pos_site_id
 _symmetry_equiv_pos_as_xyz
  1  'x, y, z'
loop_
 _atom_site_type_symbol
 _atom_site_label
 _atom_site_symmetry_multiplicity
 _atom_site_fract_x
 _atom_site_fract_y
 _atom_site_fract_z
 _atom_site_occupancy
  H  H0  1  0.25000000  0.75955060  0.54815736  1
  H  H1  1  0.75000000  0.24044940  0.45184264  1
  H  H2  1  0.25000000  0.48841827  0.18733567  1
  H  H3  1  0.75000000  0.51158173  0.81266433  1
  H  H4  1  0.25000000  0.89266974  0.18584428  1
  H  H5  1  0.75000000  0.10733026  0.81415572  1
  He  He6  1  0.25000000  0.27746359  0.64700375  1
  He  He7  1  0.75000000  0.72253641  0.35299625  1
