# generated using pymatgen
data_HHe(Li3Be)2
_symmetry_space_group_name_H-M   'P 1'
_cell_length_a   7.04306949
_cell_length_b   7.04306949
_cell_length_c   5.54369240
_cell_angle_alpha   75.40659812
_cell_angle_beta   75.40659812
_cell_angle_gamma   88.35112569
_symmetry_Int_Tables_number   1
_chemical_formula_structural   HHe(Li3Be)2
_chemical_formula_sum   'H2 He2 Li12 Be4'
_cell_volume   257.35959753
_cell_formula_units_Z   2
loop_
 _symmetry_equiv_pos_site_id
 _symmetry_equiv_pos_as_xyz
  1  'x, y, z'
loop_
 _atom_site_type_symbol
 _atom_site_label
 _atom_site_symmetry_multiplicity
 _atom_site_fract_x
 _atom_site_fract_y
 _atom_site_fract_z
 _atom_site_occupancy
  H  H0  1  0.89152110  0.10847890  0.75000000  1
  H  H1  1  0.10847890  0.89152110  0.25000000  1
  He  He2  1  0.23956358  0.76043642  0.75000000  1
  He  He3  1  0.76043642  0.23956358  0.25000000  1
  Li  Li4  1  0.22340631  0.03078808  0.81597365  1
  Li  Li5  1  0.96921192  0.77659369  0.68402635  1
  Li  Li6  1  0.77659369  0.96921192  0.18402635  1
  Li  Li7  1  0.03078808  0.22340631  0.31597365  1
  Li  Li8  1  0.60922406  0.16395695  0.60906522  1
  Li  Li9  1  0.83604305  0.39077594  0.89093478  1
  Li  Li10  1  0.39077594  0.83604305  0.39093478  1
  Li  Li11  1  0.16395695  0.60922406  0.10906522  1
  Li  Li12  1  0.36154373  0.32587183  0.94481772  1
  Li  Li13  1  0.67412817  0.63845627  0.55518228  1
  Li  Li14  1  0.63845627  0.67412817  0.05518228  1
  Li  Li15  1  0.32587183  0.36154373  0.44481772  1
  Be  Be16  1  0.38250215  0.21744642  0.70427319  1
  Be  Be17  1  0.78255358  0.61749785  0.79572681  1
  Be  Be18  1  0.61749785  0.78255358  0.29572681  1
  Be  Be19  1  0.21744642  0.38250215  0.20427319  1
