# generated using pymatgen
data_H5He4
_symmetry_space_group_name_H-M   'P 1'
_cell_length_a   5.01334726
_cell_length_b   5.01334726
_cell_length_c   15.00704601
_cell_angle_alpha   90.00000000
_cell_angle_beta   90.00000000
_cell_angle_gamma   90.00000000
_symmetry_Int_Tables_number   1
_chemical_formula_structural   H5He4
_chemical_formula_sum   'H20 He16'
_cell_volume   377.18185374
_cell_formula_units_Z   4
loop_
 _symmetry_equiv_pos_site_id
 _symmetry_equiv_pos_as_xyz
  1  'x, y, z'
loop_
 _atom_site_type_symbol
 _atom_site_label
 _atom_site_symmetry_multiplicity
 _atom_site_fract_x
 _atom_site_fract_y
 _atom_site_fract_z
 _atom_site_occupancy
  H  H0  1  0.32164398  0.32164398  0.25000000  1
  H  H1  1  0.67835602  0.67835602  0.25000000  1
  H  H2  1  0.32164398  0.67835602  0.75000000  1
  H  H3  1  0.67835602  0.32164398  0.75000000  1
  H  H4  1  0.32975527  0.18671358  0.05460656  1
  H  H5  1  0.67024473  0.81328642  0.05460656  1
  H  H6  1  0.18671358  0.67024473  0.94539344  1
  H  H7  1  0.81328642  0.32975527  0.94539344  1
  H  H8  1  0.32975527  0.81328642  0.55460656  1
  H  H9  1  0.67024473  0.18671358  0.55460656  1
  H  H10  1  0.18671358  0.32975527  0.44539344  1
  H  H11  1  0.81328642  0.67024473  0.44539344  1
  H  H12  1  0.83820437  0.23277352  0.14774465  1
  H  H13  1  0.16179563  0.76722648  0.14774465  1
  H  H14  1  0.23277352  0.16179563  0.85225535  1
  H  H15  1  0.76722648  0.83820437  0.85225535  1
  H  H16  1  0.83820437  0.76722648  0.64774465  1
  H  H17  1  0.16179563  0.23277352  0.64774465  1
  H  H18  1  0.23277352  0.83820437  0.35225535  1
  H  H19  1  0.76722648  0.16179563  0.35225535  1
  He  He20  1  0.00000000  0.00000000  0.00000000  1
  He  He21  1  0.00000000  0.00000000  0.50000000  1
  He  He22  1  -0.00000000  0.00000000  0.25000000  1
  He  He23  1  0.00000000  -0.00000000  0.75000000  1
  He  He24  1  0.50000000  0.50000000  0.13671898  1
  He  He25  1  0.50000000  0.50000000  0.86328102  1
  He  He26  1  0.50000000  0.50000000  0.63671898  1
  He  He27  1  0.50000000  0.50000000  0.36328102  1
  He  He28  1  0.00000000  0.50000000  0.06033366  1
  He  He29  1  0.50000000  0.00000000  0.93966634  1
  He  He30  1  0.00000000  0.50000000  0.56033366  1
  He  He31  1  0.50000000  0.00000000  0.43966634  1
  He  He32  1  -0.00000000  0.50000000  0.32773753  1
  He  He33  1  0.50000000  0.00000000  0.67226247  1
  He  He34  1  -0.00000000  0.50000000  0.82773753  1
  He  He35  1  0.50000000  -0.00000000  0.17226247  1
