# generated using pymatgen
data_H7He
_symmetry_space_group_name_H-M   'P 1'
_cell_length_a   7.26232877
_cell_length_b   7.26232877
_cell_length_c   7.26232877
_cell_angle_alpha   131.45893149
_cell_angle_beta   112.12863241
_cell_angle_gamma   87.77807021
_symmetry_Int_Tables_number   1
_chemical_formula_structural   H7He
_chemical_formula_sum   'H28 He4'
_cell_volume   253.37308394
_cell_formula_units_Z   4
loop_
 _symmetry_equiv_pos_site_id
 _symmetry_equiv_pos_as_xyz
  1  'x, y, z'
loop_
 _atom_site_type_symbol
 _atom_site_label
 _atom_site_symmetry_multiplicity
 _atom_site_fract_x
 _atom_site_fract_y
 _atom_site_fract_z
 _atom_site_occupancy
  H  H0  1  0.75574806  0.64040469  0.61534337  1
  H  H1  1  0.97493867  0.85959531  0.61534337  1
  H  H2  1  0.24425194  0.35959531  0.38465663  1
  H  H3  1  0.02506133  0.14040469  0.38465663  1
  H  H4  1  0.90620511  0.58239877  0.82380634  1
  H  H5  1  0.24140757  0.91760123  0.82380634  1
  H  H6  1  0.09379489  0.41760123  0.17619366  1
  H  H7  1  0.75859243  0.08239877  0.17619366  1
  H  H8  1  0.80925941  0.33387047  0.97538894  1
  H  H9  1  0.64151847  0.16612953  0.97538894  1
  H  H10  1  0.19074059  0.66612953  0.02461106  1
  H  H11  1  0.35848153  0.83387047  0.02461106  1
  H  H12  1  0.77313540  0.28094072  0.68103526  1
  H  H13  1  0.40009454  0.21905928  0.99219468  1
  H  H14  1  0.22686460  0.40789986  0.00780532  1
  H  H15  1  0.59990546  0.09210014  0.31896474  1
  H  H16  1  0.22686460  0.71905928  0.31896474  1
  H  H17  1  0.59990546  0.78094072  0.00780532  1
  H  H18  1  0.77313540  0.59210014  0.99219468  1
  H  H19  1  0.40009454  0.90789986  0.68103526  1
  H  H20  1  0.03319005  0.33127480  0.70874903  1
  H  H21  1  0.37747423  0.16872520  0.20191525  1
  H  H22  1  0.96680995  0.17555899  0.79808475  1
  H  H23  1  0.62252577  0.32444101  0.29125097  1
  H  H24  1  0.96680995  0.66872520  0.29125097  1
  H  H25  1  0.62252577  0.83127480  0.79808475  1
  H  H26  1  0.03319005  0.82444101  0.20191525  1
  H  H27  1  0.37747423  0.67555899  0.70874903  1
  He  He28  1  0.00000000  0.50000000  0.50000000  1
  He  He29  1  0.00000000  0.00000000  -0.00000000  1
  He  He30  1  0.38519209  0.25000000  0.63519209  1
  He  He31  1  0.61480791  0.75000000  0.36480791  1
