# generated using pymatgen
data_H3He4
_symmetry_space_group_name_H-M   'P 1'
_cell_length_a   8.33584096
_cell_length_b   8.33584096
_cell_length_c   8.33584096
_cell_angle_alpha   114.54531106
_cell_angle_beta   114.54531106
_cell_angle_gamma   114.54531106
_symmetry_Int_Tables_number   1
_chemical_formula_structural   H3He4
_chemical_formula_sum   'H6 He8'
_cell_volume   337.20876042
_cell_formula_units_Z   2
loop_
 _symmetry_equiv_pos_site_id
 _symmetry_equiv_pos_as_xyz
  1  'x, y, z'
loop_
 _atom_site_type_symbol
 _atom_site_label
 _atom_site_symmetry_multiplicity
 _atom_site_fract_x
 _atom_site_fract_y
 _atom_site_fract_z
 _atom_site_occupancy
  H  H0  1  0.72057225  0.97130204  0.59447592  1
  H  H1  1  0.97130204  0.59447592  0.72057225  1
  H  H2  1  0.59447592  0.72057225  0.97130204  1
  H  H3  1  0.27942775  0.02869796  0.40552408  1
  H  H4  1  0.02869796  0.40552408  0.27942775  1
  H  H5  1  0.40552408  0.27942775  0.02869796  1
  He  He6  1  -0.00000000  -0.00000000  -0.00000000  1
  He  He7  1  0.50000000  0.50000000  0.50000000  1
  He  He8  1  0.44600176  0.94144730  0.77812620  1
  He  He9  1  0.94144730  0.77812620  0.44600176  1
  He  He10  1  0.77812620  0.44600176  0.94144730  1
  He  He11  1  0.55399824  0.05855270  0.22187380  1
  He  He12  1  0.05855270  0.22187380  0.55399824  1
  He  He13  1  0.22187380  0.55399824  0.05855270  1
