# generated using pymatgen
data_H3He(Li3Be)2
_symmetry_space_group_name_H-M   'P 1'
_cell_length_a   4.50090039
_cell_length_b   7.07891865
_cell_length_c   13.74942217
_cell_angle_alpha   89.99799596
_cell_angle_beta   90.00000000
_cell_angle_gamma   90.00000000
_symmetry_Int_Tables_number   1
_chemical_formula_structural   H3He(Li3Be)2
_chemical_formula_sum   'H6 He2 Li12 Be4'
_cell_volume   438.07731957
_cell_formula_units_Z   2
loop_
 _symmetry_equiv_pos_site_id
 _symmetry_equiv_pos_as_xyz
  1  'x, y, z'
loop_
 _atom_site_type_symbol
 _atom_site_label
 _atom_site_symmetry_multiplicity
 _atom_site_fract_x
 _atom_site_fract_y
 _atom_site_fract_z
 _atom_site_occupancy
  H  H0  1  0.50000000  0.00000000  0.00000000  1
  H  H1  1  0.00000000  0.50000000  0.00000000  1
  H  H2  1  0.17292495  0.51051058  0.14021963  1
  H  H3  1  0.67292495  0.98948942  0.85978037  1
  H  H4  1  0.82707505  0.48948942  0.85978037  1
  H  H5  1  0.32707505  0.01051058  0.14021963  1
  He  He6  1  0.00000000  0.00000000  0.00000000  1
  He  He7  1  0.50000000  0.50000000  0.00000000  1
  Li  Li8  1  0.78358689  0.33428319  0.46596425  1
  Li  Li9  1  0.28358689  0.16571681  0.53403575  1
  Li  Li10  1  0.21641311  0.66571681  0.53403575  1
  Li  Li11  1  0.71641311  0.83428319  0.46596425  1
  Li  Li12  1  0.64384584  0.74209883  0.73424208  1
  Li  Li13  1  0.14384584  0.75790117  0.26575792  1
  Li  Li14  1  0.35615416  0.25790117  0.26575792  1
  Li  Li15  1  0.85615416  0.24209883  0.73424208  1
  Li  Li16  1  0.66386933  0.90032281  0.38482670  1
  Li  Li17  1  0.16386933  0.59967719  0.61517330  1
  Li  Li18  1  0.33613067  0.09967719  0.61517330  1
  Li  Li19  1  0.83613067  0.40032281  0.38482670  1
  Be  Be20  1  0.35848394  0.56210065  0.23168749  1
  Be  Be21  1  0.85848394  0.93789935  0.76831251  1
  Be  Be22  1  0.64151606  0.43789935  0.76831251  1
  Be  Be23  1  0.14151606  0.06210065  0.23168749  1
