# generated using pymatgen
data_HHeLi3
_symmetry_space_group_name_H-M   'P 1'
_cell_length_a   3.80086271
_cell_length_b   7.76692813
_cell_length_c   13.11991596
_cell_angle_alpha   90.00000000
_cell_angle_beta   90.00000000
_cell_angle_gamma   90.00000000
_symmetry_Int_Tables_number   1
_chemical_formula_structural   HHeLi3
_chemical_formula_sum   'H4 He4 Li12'
_cell_volume   387.31339998
_cell_formula_units_Z   4
loop_
 _symmetry_equiv_pos_site_id
 _symmetry_equiv_pos_as_xyz
  1  'x, y, z'
loop_
 _atom_site_type_symbol
 _atom_site_label
 _atom_site_symmetry_multiplicity
 _atom_site_fract_x
 _atom_site_fract_y
 _atom_site_fract_z
 _atom_site_occupancy
  H  H0  1  0.25000000  0.34309483  0.05199594  1
  H  H1  1  0.75000000  0.15690517  0.55199594  1
  H  H2  1  0.75000000  0.65690517  0.94800406  1
  H  H3  1  0.25000000  0.84309483  0.44800406  1
  He  He4  1  0.25000000  0.09181475  0.82947639  1
  He  He5  1  0.75000000  0.40818525  0.32947639  1
  He  He6  1  0.75000000  0.90818525  0.17052361  1
  He  He7  1  0.25000000  0.59181475  0.67052361  1
  Li  Li8  1  0.25000000  0.19218939  0.21075101  1
  Li  Li9  1  0.75000000  0.30781061  0.71075101  1
  Li  Li10  1  0.75000000  0.80781061  0.78924899  1
  Li  Li11  1  0.25000000  0.69218939  0.28924899  1
  Li  Li12  1  0.25000000  0.33855539  0.49402226  1
  Li  Li13  1  0.75000000  0.16144461  0.99402226  1
  Li  Li14  1  0.75000000  0.66144461  0.50597774  1
  Li  Li15  1  0.25000000  0.83855539  0.00597774  1
  Li  Li16  1  0.25000000  0.48459505  0.88983117  1
  Li  Li17  1  0.75000000  0.01540495  0.38983117  1
  Li  Li18  1  0.75000000  0.51540495  0.11016883  1
  Li  Li19  1  0.25000000  0.98459505  0.61016883  1
