# generated using pymatgen
data_HHeLi6
_symmetry_space_group_name_H-M   'P 1'
_cell_length_a   8.22870572
_cell_length_b   8.09202789
_cell_length_c   11.02678468
_cell_angle_alpha   60.57564512
_cell_angle_beta   73.22822948
_cell_angle_gamma   82.12669562
_symmetry_Int_Tables_number   1
_chemical_formula_structural   HHeLi6
_chemical_formula_sum   'H2 He2 Li12'
_cell_volume   612.31203323
_cell_formula_units_Z   2
loop_
 _symmetry_equiv_pos_site_id
 _symmetry_equiv_pos_as_xyz
  1  'x, y, z'
loop_
 _atom_site_type_symbol
 _atom_site_label
 _atom_site_symmetry_multiplicity
 _atom_site_fract_x
 _atom_site_fract_y
 _atom_site_fract_z
 _atom_site_occupancy
  H  H0  1  0.70965654  0.83501805  0.85061287  1
  H  H1  1  0.29034346  0.16498195  0.14938713  1
  He  He2  1  0.48159081  0.48740378  0.70649900  1
  He  He3  1  0.51840919  0.51259622  0.29350100  1
  Li  Li4  1  0.42309930  0.79277541  0.96378577  1
  Li  Li5  1  0.57690070  0.20722459  0.03621423  1
  Li  Li6  1  0.80029453  0.14583931  0.70028390  1
  Li  Li7  1  0.19970547  0.85416069  0.29971610  1
  Li  Li8  1  0.84019158  0.69558341  0.04346030  1
  Li  Li9  1  0.15980842  0.30441659  0.95653970  1
  Li  Li10  1  0.79289429  0.67177469  0.71463804  1
  Li  Li11  1  0.20710571  0.32822531  0.28536196  1
  Li  Li12  1  0.69336940  0.65254104  0.41356190  1
  Li  Li13  1  0.30663060  0.34745896  0.58643810  1
  Li  Li14  1  0.30890042  0.80077320  0.64585204  1
  Li  Li15  1  0.69109958  0.19922680  0.35414796  1
