# generated using pymatgen
data_HHe3
_symmetry_space_group_name_H-M   'P 1'
_cell_length_a   3.61016451
_cell_length_b   5.14823929
_cell_length_c   9.54700938
_cell_angle_alpha   82.89573641
_cell_angle_beta   90.00000000
_cell_angle_gamma   90.00000000
_symmetry_Int_Tables_number   1
_chemical_formula_structural   HHe3
_chemical_formula_sum   'H2 He6'
_cell_volume   176.07836986
_cell_formula_units_Z   2
loop_
 _symmetry_equiv_pos_site_id
 _symmetry_equiv_pos_as_xyz
  1  'x, y, z'
loop_
 _atom_site_type_symbol
 _atom_site_label
 _atom_site_symmetry_multiplicity
 _atom_site_fract_x
 _atom_site_fract_y
 _atom_site_fract_z
 _atom_site_occupancy
  H  H0  1  0.25000000  0.71619590  0.64602174  1
  H  H1  1  0.75000000  0.28380410  0.35397826  1
  He  He2  1  0.25000000  0.23850517  0.55037602  1
  He  He3  1  0.75000000  0.76149483  0.44962398  1
  He  He4  1  0.25000000  0.52399688  0.18944122  1
  He  He5  1  0.75000000  0.47600312  0.81055878  1
  He  He6  1  0.25000000  0.11938718  0.18915217  1
  He  He7  1  0.75000000  0.88061282  0.81084783  1
