# generated using pymatgen
data_HHe6Li2
_symmetry_space_group_name_H-M   'P 1'
_cell_length_a   7.22862713
_cell_length_b   5.47169917
_cell_length_c   4.05924696
_cell_angle_alpha   93.27068335
_cell_angle_beta   91.58262280
_cell_angle_gamma   90.30812483
_symmetry_Int_Tables_number   1
_chemical_formula_structural   HHe6Li2
_chemical_formula_sum   'H1 He6 Li2'
_cell_volume   160.22832332
_cell_formula_units_Z   1
loop_
 _symmetry_equiv_pos_site_id
 _symmetry_equiv_pos_as_xyz
  1  'x, y, z'
loop_
 _atom_site_type_symbol
 _atom_site_label
 _atom_site_symmetry_multiplicity
 _atom_site_fract_x
 _atom_site_fract_y
 _atom_site_fract_z
 _atom_site_occupancy
  H  H0  1  -0.00000000  0.00000000  0.00000000  1
  He  He1  1  0.03646495  0.67577433  0.21344342  1
  He  He2  1  0.96353505  0.32422567  0.78655658  1
  He  He3  1  0.33685816  0.52469083  0.75366473  1
  He  He4  1  0.66314184  0.47530917  0.24633527  1
  He  He5  1  0.23136143  0.14797764  0.15808448  1
  He  He6  1  0.76863857  0.85202236  0.84191552  1
  Li  Li7  1  0.18586548  0.42843235  0.00644610  1
  Li  Li8  1  0.81413452  0.57156765  0.99355390  1
