# generated using pymatgen
data_HHe5Li3
_symmetry_space_group_name_H-M   'P 1'
_cell_length_a   13.08260665
_cell_length_b   13.08260665
_cell_length_c   7.86571467
_cell_angle_alpha   90.00000000
_cell_angle_beta   90.00000000
_cell_angle_gamma   90.00000000
_symmetry_Int_Tables_number   1
_chemical_formula_structural   HHe5Li3
_chemical_formula_sum   'H8 He40 Li24'
_cell_volume   1346.25322131
_cell_formula_units_Z   8
loop_
 _symmetry_equiv_pos_site_id
 _symmetry_equiv_pos_as_xyz
  1  'x, y, z'
loop_
 _atom_site_type_symbol
 _atom_site_label
 _atom_site_symmetry_multiplicity
 _atom_site_fract_x
 _atom_site_fract_y
 _atom_site_fract_z
 _atom_site_occupancy
  H  H0  1  0.38871375  0.11504167  0.12559451  1
  H  H1  1  0.61128625  0.88495833  0.12559451  1
  H  H2  1  0.11504167  0.61128625  0.87440549  1
  H  H3  1  0.88495833  0.38871375  0.87440549  1
  H  H4  1  0.11128625  0.61504167  0.37440549  1
  H  H5  1  0.88871375  0.38495833  0.37440549  1
  H  H6  1  0.38495833  0.11128625  0.62559451  1
  H  H7  1  0.61504167  0.88871375  0.62559451  1
  He  He8  1  0.11544934  0.00797417  0.10281623  1
  He  He9  1  0.88455066  0.99202583  0.10281623  1
  He  He10  1  0.00797417  0.88455066  0.89718377  1
  He  He11  1  0.99202583  0.11544934  0.89718377  1
  He  He12  1  0.38455066  0.50797417  0.39718377  1
  He  He13  1  0.61544934  0.49202583  0.39718377  1
  He  He14  1  0.49202583  0.38455066  0.60281623  1
  He  He15  1  0.50797417  0.61544934  0.60281623  1
  He  He16  1  0.47745550  0.40106921  0.13527187  1
  He  He17  1  0.52254450  0.59893079  0.13527187  1
  He  He18  1  0.40106921  0.52254450  0.86472813  1
  He  He19  1  0.59893079  0.47745550  0.86472813  1
  He  He20  1  0.02254450  0.90106921  0.36472813  1
  He  He21  1  0.97745550  0.09893079  0.36472813  1
  He  He22  1  0.09893079  0.02254450  0.63527187  1
  He  He23  1  0.90106921  0.97745550  0.63527187  1
  He  He24  1  0.71851752  0.14877727  0.13504922  1
  He  He25  1  0.28148248  0.85122273  0.13504922  1
  He  He26  1  0.14877727  0.28148248  0.86495078  1
  He  He27  1  0.85122273  0.71851752  0.86495078  1
  He  He28  1  0.78148248  0.64877727  0.36495078  1
  He  He29  1  0.21851752  0.35122273  0.36495078  1
  He  He30  1  0.35122273  0.78148248  0.63504922  1
  He  He31  1  0.64877727  0.21851752  0.63504922  1
  He  He32  1  0.28008303  0.39167400  0.03520159  1
  He  He33  1  0.71991697  0.60832600  0.03520159  1
  He  He34  1  0.39167400  0.71991697  0.96479841  1
  He  He35  1  0.60832600  0.28008303  0.96479841  1
  He  He36  1  0.21991697  0.89167400  0.46479841  1
  He  He37  1  0.78008303  0.10832600  0.46479841  1
  He  He38  1  0.10832600  0.21991697  0.53520159  1
  He  He39  1  0.89167400  0.78008303  0.53520159  1
  He  He40  1  0.10210750  0.21453009  0.18506143  1
  He  He41  1  0.89789250  0.78546991  0.18506143  1
  He  He42  1  0.21453009  0.89789250  0.81493857  1
  He  He43  1  0.78546991  0.10210750  0.81493857  1
  He  He44  1  0.39789250  0.71453009  0.31493857  1
  He  He45  1  0.60210750  0.28546991  0.31493857  1
  He  He46  1  0.28546991  0.39789250  0.68506143  1
  He  He47  1  0.71453009  0.60210750  0.68506143  1
  Li  Li48  1  0.11867802  0.38054911  0.11991635  1
  Li  Li49  1  0.88132198  0.61945089  0.11991635  1
  Li  Li50  1  0.38054911  0.88132198  0.88008365  1
  Li  Li51  1  0.61945089  0.11867802  0.88008365  1
  Li  Li52  1  0.38132198  0.88054911  0.38008365  1
  Li  Li53  1  0.61867802  0.11945089  0.38008365  1
  Li  Li54  1  0.11945089  0.38132198  0.61991635  1
  Li  Li55  1  0.88054911  0.61867802  0.61991635  1
  Li  Li56  1  0.65964340  0.41145916  0.13153238  1
  Li  Li57  1  0.34035660  0.58854084  0.13153238  1
  Li  Li58  1  0.41145916  0.34035660  0.86846762  1
  Li  Li59  1  0.58854084  0.65964340  0.86846762  1
  Li  Li60  1  0.84035660  0.91145916  0.36846762  1
  Li  Li61  1  0.15964340  0.08854084  0.36846762  1
  Li  Li62  1  0.08854084  0.84035660  0.63153238  1
  Li  Li63  1  0.91145916  0.15964340  0.63153238  1
  Li  Li64  1  0.89521329  0.16618967  0.12756083  1
  Li  Li65  1  0.10478671  0.83381033  0.12756083  1
  Li  Li66  1  0.16618967  0.10478671  0.87243917  1
  Li  Li67  1  0.83381033  0.89521329  0.87243917  1
  Li  Li68  1  0.60478671  0.66618967  0.37243917  1
  Li  Li69  1  0.39521329  0.33381033  0.37243917  1
  Li  Li70  1  0.33381033  0.60478671  0.62756083  1
  Li  Li71  1  0.66618967  0.39521329  0.62756083  1
