# generated using pymatgen
data_H2He2Li
_symmetry_space_group_name_H-M   'P 1'
_cell_length_a   5.83951756
_cell_length_b   5.83951756
_cell_length_c   10.52544555
_cell_angle_alpha   90.00000000
_cell_angle_beta   90.00000000
_cell_angle_gamma   90.00000000
_symmetry_Int_Tables_number   1
_chemical_formula_structural   H2He2Li
_chemical_formula_sum   'H8 He8 Li4'
_cell_volume   358.91732768
_cell_formula_units_Z   4
loop_
 _symmetry_equiv_pos_site_id
 _symmetry_equiv_pos_as_xyz
  1  'x, y, z'
loop_
 _atom_site_type_symbol
 _atom_site_label
 _atom_site_symmetry_multiplicity
 _atom_site_fract_x
 _atom_site_fract_y
 _atom_site_fract_z
 _atom_site_occupancy
  H  H0  1  0.00000000  0.00000000  0.14152374  1
  H  H1  1  0.50000000  0.50000000  0.64152374  1
  H  H2  1  0.50000000  0.50000000  0.35847626  1
  H  H3  1  0.00000000  0.00000000  0.85847626  1
  H  H4  1  0.00000000  0.50000000  0.00000000  1
  H  H5  1  0.00000000  0.50000000  0.50000000  1
  H  H6  1  0.50000000  0.00000000  0.50000000  1
  H  H7  1  0.50000000  0.00000000  0.00000000  1
  He  He8  1  0.19618424  0.19618424  0.34249082  1
  He  He9  1  0.80381576  0.80381576  0.34249082  1
  He  He10  1  0.30381576  0.69618424  0.84249082  1
  He  He11  1  0.69618424  0.30381576  0.84249082  1
  He  He12  1  0.30381576  0.69618424  0.15750918  1
  He  He13  1  0.69618424  0.30381576  0.15750918  1
  He  He14  1  0.19618424  0.19618424  0.65750918  1
  He  He15  1  0.80381576  0.80381576  0.65750918  1
  Li  Li16  1  0.17792539  0.17792539  0.00000000  1
  Li  Li17  1  0.82207461  0.82207461  0.00000000  1
  Li  Li18  1  0.32207461  0.67792539  0.50000000  1
  Li  Li19  1  0.67792539  0.32207461  0.50000000  1
