# generated using pymatgen
data_H2He
_symmetry_space_group_name_H-M   'P 1'
_cell_length_a   7.59193418
_cell_length_b   7.59193418
_cell_length_c   8.77143691
_cell_angle_alpha   90.00000000
_cell_angle_beta   90.00000000
_cell_angle_gamma   90.00000000
_symmetry_Int_Tables_number   1
_chemical_formula_structural   H2He
_chemical_formula_sum   'H24 He12'
_cell_volume   505.56338373
_cell_formula_units_Z   12
loop_
 _symmetry_equiv_pos_site_id
 _symmetry_equiv_pos_as_xyz
  1  'x, y, z'
loop_
 _atom_site_type_symbol
 _atom_site_label
 _atom_site_symmetry_multiplicity
 _atom_site_fract_x
 _atom_site_fract_y
 _atom_site_fract_z
 _atom_site_occupancy
  H  H0  1  0.44385267  0.12373246  0.39990708  1
  H  H1  1  0.55614733  0.87626754  0.89990708  1
  H  H2  1  0.37626754  0.94385267  0.14990708  1
  H  H3  1  0.62373246  0.05614733  0.64990708  1
  H  H4  1  0.05614733  0.62373246  0.35009292  1
  H  H5  1  0.94385267  0.37626754  0.85009292  1
  H  H6  1  0.12373246  0.44385267  0.60009292  1
  H  H7  1  0.87626754  0.55614733  0.10009292  1
  H  H8  1  0.12056591  0.11543242  0.29613541  1
  H  H9  1  0.87943409  0.88456758  0.79613541  1
  H  H10  1  0.38456758  0.62056591  0.04613541  1
  H  H11  1  0.61543242  0.37943409  0.54613541  1
  H  H12  1  0.37943409  0.61543242  0.45386459  1
  H  H13  1  0.62056591  0.38456758  0.95386459  1
  H  H14  1  0.11543242  0.12056591  0.70386459  1
  H  H15  1  0.88456758  0.87943409  0.20386459  1
  H  H16  1  0.36362271  0.29597747  0.14614459  1
  H  H17  1  0.63637729  0.70402253  0.64614459  1
  H  H18  1  0.20402253  0.86362271  0.89614459  1
  H  H19  1  0.79597747  0.13637729  0.39614459  1
  H  H20  1  0.13637729  0.79597747  0.60385541  1
  H  H21  1  0.86362271  0.20402253  0.10385541  1
  H  H22  1  0.29597747  0.36362271  0.85385541  1
  H  H23  1  0.70402253  0.63637729  0.35385541  1
  He  He24  1  0.32604051  0.11962727  0.24592918  1
  He  He25  1  0.67395949  0.88037273  0.74592918  1
  He  He26  1  0.38037273  0.82604051  0.99592918  1
  He  He27  1  0.61962727  0.17395949  0.49592918  1
  He  He28  1  0.17395949  0.61962727  0.50407082  1
  He  He29  1  0.82604051  0.38037273  0.00407082  1
  He  He30  1  0.11962727  0.32604051  0.75407082  1
  He  He31  1  0.88037273  0.67395949  0.25407082  1
  He  He32  1  0.41597085  0.41597085  0.00000000  1
  He  He33  1  0.58402915  0.58402915  0.50000000  1
  He  He34  1  0.08402915  0.91597085  0.75000000  1
  He  He35  1  0.91597085  0.08402915  0.25000000  1
