# generated using pymatgen
data_H3He
_symmetry_space_group_name_H-M   'P 1'
_cell_length_a   5.70460421
_cell_length_b   6.74653037
_cell_length_c   11.66045126
_cell_angle_alpha   90.00000000
_cell_angle_beta   90.00000000
_cell_angle_gamma   90.00000000
_symmetry_Int_Tables_number   1
_chemical_formula_structural   H3He
_chemical_formula_sum   'H12 He4'
_cell_volume   448.76745656
_cell_formula_units_Z   4
loop_
 _symmetry_equiv_pos_site_id
 _symmetry_equiv_pos_as_xyz
  1  'x, y, z'
loop_
 _atom_site_type_symbol
 _atom_site_label
 _atom_site_symmetry_multiplicity
 _atom_site_fract_x
 _atom_site_fract_y
 _atom_site_fract_z
 _atom_site_occupancy
  H  H0  1  0.75000000  0.89008156  0.39597615  1
  H  H1  1  0.75000000  0.89008156  0.10402385  1
  H  H2  1  0.25000000  0.10991844  0.60402385  1
  H  H3  1  0.25000000  0.10991844  0.89597615  1
  H  H4  1  0.75000000  0.39328903  0.61224021  1
  H  H5  1  0.75000000  0.39328903  0.88775979  1
  H  H6  1  0.25000000  0.60671097  0.38775979  1
  H  H7  1  0.25000000  0.60671097  0.11224021  1
  H  H8  1  0.75000000  0.45335047  0.25000000  1
  H  H9  1  0.25000000  0.54664953  0.75000000  1
  H  H10  1  0.25000000  0.01971654  0.25000000  1
  H  H11  1  0.75000000  0.98028346  0.75000000  1
  He  He12  1  0.97984393  0.74449408  0.25000000  1
  He  He13  1  0.52015607  0.74449408  0.25000000  1
  He  He14  1  0.47984393  0.25550592  0.75000000  1
  He  He15  1  0.02015607  0.25550592  0.75000000  1
