# generated using pymatgen
data_H2He
_symmetry_space_group_name_H-M   'P 1'
_cell_length_a   5.22944340
_cell_length_b   5.32569383
_cell_length_c   10.29966251
_cell_angle_alpha   90.00000000
_cell_angle_beta   90.00000000
_cell_angle_gamma   90.00000000
_symmetry_Int_Tables_number   1
_chemical_formula_structural   H2He
_chemical_formula_sum   'H16 He8'
_cell_volume   286.84986963
_cell_formula_units_Z   8
loop_
 _symmetry_equiv_pos_site_id
 _symmetry_equiv_pos_as_xyz
  1  'x, y, z'
loop_
 _atom_site_type_symbol
 _atom_site_label
 _atom_site_symmetry_multiplicity
 _atom_site_fract_x
 _atom_site_fract_y
 _atom_site_fract_z
 _atom_site_occupancy
  H  H0  1  0.13766066  0.62670761  0.79178564  1
  H  H1  1  0.63766066  0.37329239  0.70821436  1
  H  H2  1  0.36233934  0.12670761  0.20821436  1
  H  H3  1  0.86233934  0.87329239  0.29178564  1
  H  H4  1  0.86233934  0.37329239  0.20821436  1
  H  H5  1  0.36233934  0.62670761  0.29178564  1
  H  H6  1  0.63766066  0.87329239  0.79178564  1
  H  H7  1  0.13766066  0.12670761  0.70821436  1
  H  H8  1  0.50086695  0.26023916  0.97818356  1
  H  H9  1  0.00086695  0.73976084  0.52181644  1
  H  H10  1  0.99913305  0.76023916  0.02181644  1
  H  H11  1  0.49913305  0.23976084  0.47818356  1
  H  H12  1  0.49913305  0.73976084  0.02181644  1
  H  H13  1  0.99913305  0.26023916  0.47818356  1
  H  H14  1  0.00086695  0.23976084  0.97818356  1
  H  H15  1  0.50086695  0.76023916  0.52181644  1
  He  He16  1  0.26967525  0.96819082  0.88238182  1
  He  He17  1  0.76967525  0.03180918  0.61761818  1
  He  He18  1  0.23032475  0.46819082  0.11761818  1
  He  He19  1  0.73032475  0.53180918  0.38238182  1
  He  He20  1  0.73032475  0.03180918  0.11761818  1
  He  He21  1  0.23032475  0.96819082  0.38238182  1
  He  He22  1  0.76967525  0.53180918  0.88238182  1
  He  He23  1  0.26967525  0.46819082  0.61761818  1
