# generated using pymatgen
data_H2He2Li
_symmetry_space_group_name_H-M   'P 1'
_cell_length_a   6.39956683
_cell_length_b   6.39956683
_cell_length_c   6.39956683
_cell_angle_alpha   141.67137449
_cell_angle_beta   141.67137449
_cell_angle_gamma   55.32412849
_symmetry_Int_Tables_number   1
_chemical_formula_structural   H2He2Li
_chemical_formula_sum   'H2 He2 Li1'
_cell_volume   100.06529870
_cell_formula_units_Z   1
loop_
 _symmetry_equiv_pos_site_id
 _symmetry_equiv_pos_as_xyz
  1  'x, y, z'
loop_
 _atom_site_type_symbol
 _atom_site_label
 _atom_site_symmetry_multiplicity
 _atom_site_fract_x
 _atom_site_fract_y
 _atom_site_fract_z
 _atom_site_occupancy
  H  H0  1  0.75000000  0.25000000  0.50000000  1
  H  H1  1  0.25000000  0.75000000  0.50000000  1
  He  He2  1  0.61626948  0.61626948  -0.00000000  1
  He  He3  1  0.38373052  0.38373052  -0.00000000  1
  Li  Li4  1  -0.00000000  0.00000000  -0.00000000  1
