# generated using pymatgen
data_H2He2(Li4Be)3
_symmetry_space_group_name_H-M   'P 1'
_cell_length_a   10.30038360
_cell_length_b   10.30038360
_cell_length_c   10.30038360
_cell_angle_alpha   90.00000000
_cell_angle_beta   90.00000000
_cell_angle_gamma   90.00000000
_symmetry_Int_Tables_number   1
_chemical_formula_structural   H2He2(Li4Be)3
_chemical_formula_sum   'H8 He8 Li48 Be12'
_cell_volume   1092.84909261
_cell_formula_units_Z   4
loop_
 _symmetry_equiv_pos_site_id
 _symmetry_equiv_pos_as_xyz
  1  'x, y, z'
loop_
 _atom_site_type_symbol
 _atom_site_label
 _atom_site_symmetry_multiplicity
 _atom_site_fract_x
 _atom_site_fract_y
 _atom_site_fract_z
 _atom_site_occupancy
  H  H0  1  0.81554297  0.81554297  0.81554297  1
  H  H1  1  0.68445703  0.18445703  0.31554297  1
  H  H2  1  0.18445703  0.31554297  0.68445703  1
  H  H3  1  0.31554297  0.68445703  0.18445703  1
  H  H4  1  0.05246155  0.05246155  0.05246155  1
  H  H5  1  0.44753845  0.94753845  0.55246155  1
  H  H6  1  0.94753845  0.55246155  0.44753845  1
  H  H7  1  0.55246155  0.44753845  0.94753845  1
  He  He8  1  0.33232803  0.33232803  0.33232803  1
  He  He9  1  0.16767197  0.66767197  0.83232803  1
  He  He10  1  0.66767197  0.83232803  0.16767197  1
  He  He11  1  0.83232803  0.16767197  0.66767197  1
  He  He12  1  0.59278360  0.59278360  0.59278360  1
  He  He13  1  0.90721640  0.40721640  0.09278360  1
  He  He14  1  0.40721640  0.09278360  0.90721640  1
  He  He15  1  0.09278360  0.90721640  0.40721640  1
  Li  Li16  1  0.31166245  0.27530017  0.96170538  1
  Li  Li17  1  0.18833755  0.72469983  0.46170538  1
  Li  Li18  1  0.68833755  0.77530017  0.53829462  1
  Li  Li19  1  0.81166245  0.22469983  0.03829462  1
  Li  Li20  1  0.96170538  0.31166245  0.27530017  1
  Li  Li21  1  0.46170538  0.18833755  0.72469983  1
  Li  Li22  1  0.53829462  0.68833755  0.77530017  1
  Li  Li23  1  0.03829462  0.81166245  0.22469983  1
  Li  Li24  1  0.27530017  0.96170538  0.31166245  1
  Li  Li25  1  0.72469983  0.46170538  0.18833755  1
  Li  Li26  1  0.77530017  0.53829462  0.68833755  1
  Li  Li27  1  0.22469983  0.03829462  0.81166245  1
  Li  Li28  1  0.08594601  0.32420629  0.00924638  1
  Li  Li29  1  0.41405399  0.67579371  0.50924638  1
  Li  Li30  1  0.91405399  0.82420629  0.49075362  1
  Li  Li31  1  0.58594601  0.17579371  0.99075362  1
  Li  Li32  1  0.00924638  0.08594601  0.32420629  1
  Li  Li33  1  0.50924638  0.41405399  0.67579371  1
  Li  Li34  1  0.49075362  0.91405399  0.82420629  1
  Li  Li35  1  0.99075362  0.58594601  0.17579371  1
  Li  Li36  1  0.32420629  0.00924638  0.08594601  1
  Li  Li37  1  0.67579371  0.50924638  0.41405399  1
  Li  Li38  1  0.82420629  0.49075362  0.91405399  1
  Li  Li39  1  0.17579371  0.99075362  0.58594601  1
  Li  Li40  1  0.23481269  0.49217703  0.93088102  1
  Li  Li41  1  0.26518731  0.50782297  0.43088102  1
  Li  Li42  1  0.76518731  0.99217703  0.56911898  1
  Li  Li43  1  0.73481269  0.00782297  0.06911898  1
  Li  Li44  1  0.93088102  0.23481269  0.49217703  1
  Li  Li45  1  0.43088102  0.26518731  0.50782297  1
  Li  Li46  1  0.56911898  0.76518731  0.99217703  1
  Li  Li47  1  0.06911898  0.73481269  0.00782297  1
  Li  Li48  1  0.49217703  0.93088102  0.23481269  1
  Li  Li49  1  0.50782297  0.43088102  0.26518731  1
  Li  Li50  1  0.99217703  0.56911898  0.76518731  1
  Li  Li51  1  0.00782297  0.06911898  0.73481269  1
  Li  Li52  1  0.25751907  0.41017141  0.14955127  1
  Li  Li53  1  0.24248093  0.58982859  0.64955127  1
  Li  Li54  1  0.74248093  0.91017141  0.35044873  1
  Li  Li55  1  0.75751907  0.08982859  0.85044873  1
  Li  Li56  1  0.14955127  0.25751907  0.41017141  1
  Li  Li57  1  0.64955127  0.24248093  0.58982859  1
  Li  Li58  1  0.35044873  0.74248093  0.91017141  1
  Li  Li59  1  0.85044873  0.75751907  0.08982859  1
  Li  Li60  1  0.41017141  0.14955127  0.25751907  1
  Li  Li61  1  0.58982859  0.64955127  0.24248093  1
  Li  Li62  1  0.91017141  0.35044873  0.74248093  1
  Li  Li63  1  0.08982859  0.85044873  0.75751907  1
  Be  Be64  1  0.22179046  0.37503199  0.01416325  1
  Be  Be65  1  0.27820954  0.62496801  0.51416325  1
  Be  Be66  1  0.77820954  0.87503199  0.48583675  1
  Be  Be67  1  0.72179046  0.12496801  0.98583675  1
  Be  Be68  1  0.01416325  0.22179046  0.37503199  1
  Be  Be69  1  0.51416325  0.27820954  0.62496801  1
  Be  Be70  1  0.48583675  0.77820954  0.87503199  1
  Be  Be71  1  0.98583675  0.72179046  0.12496801  1
  Be  Be72  1  0.37503199  0.01416325  0.22179046  1
  Be  Be73  1  0.62496801  0.51416325  0.27820954  1
  Be  Be74  1  0.87503199  0.48583675  0.77820954  1
  Be  Be75  1  0.12496801  0.98583675  0.72179046  1
