# generated using pymatgen
data_HHe
_symmetry_space_group_name_H-M   'P 1'
_cell_length_a   4.16950547
_cell_length_b   6.15937883
_cell_length_c   8.55110352
_cell_angle_alpha   90.00000000
_cell_angle_beta   90.00000000
_cell_angle_gamma   90.00000000
_symmetry_Int_Tables_number   1
_chemical_formula_structural   HHe
_chemical_formula_sum   'H4 He4'
_cell_volume   219.60571014
_cell_formula_units_Z   4
loop_
 _symmetry_equiv_pos_site_id
 _symmetry_equiv_pos_as_xyz
  1  'x, y, z'
loop_
 _atom_site_type_symbol
 _atom_site_label
 _atom_site_symmetry_multiplicity
 _atom_site_fract_x
 _atom_site_fract_y
 _atom_site_fract_z
 _atom_site_occupancy
  H  H0  1  0.75000000  0.36776214  0.03713964  1
  H  H1  1  0.25000000  0.86776214  0.46286036  1
  H  H2  1  0.25000000  0.63223786  0.96286036  1
  H  H3  1  0.75000000  0.13223786  0.53713964  1
  He  He4  1  0.75000000  0.88166774  0.18101552  1
  He  He5  1  0.25000000  0.38166774  0.31898448  1
  He  He6  1  0.25000000  0.11833226  0.81898448  1
  He  He7  1  0.75000000  0.61833226  0.68101552  1
