# generated using pymatgen
data_H4He13Li3
_symmetry_space_group_name_H-M   'P 1'
_cell_length_a   9.94211007
_cell_length_b   9.94211007
_cell_length_c   9.94211007
_cell_angle_alpha   90.00000000
_cell_angle_beta   90.00000000
_cell_angle_gamma   90.00000000
_symmetry_Int_Tables_number   1
_chemical_formula_structural   H4He13Li3
_chemical_formula_sum   'H8 He26 Li6'
_cell_volume   982.73336479
_cell_formula_units_Z   2
loop_
 _symmetry_equiv_pos_site_id
 _symmetry_equiv_pos_as_xyz
  1  'x, y, z'
loop_
 _atom_site_type_symbol
 _atom_site_label
 _atom_site_symmetry_multiplicity
 _atom_site_fract_x
 _atom_site_fract_y
 _atom_site_fract_z
 _atom_site_occupancy
  H  H0  1  0.25000000  0.25000000  0.25000000  1
  H  H1  1  0.75000000  0.75000000  0.25000000  1
  H  H2  1  0.75000000  0.25000000  0.75000000  1
  H  H3  1  0.25000000  0.75000000  0.75000000  1
  H  H4  1  0.75000000  0.75000000  0.75000000  1
  H  H5  1  0.25000000  0.25000000  0.75000000  1
  H  H6  1  0.25000000  0.75000000  0.25000000  1
  H  H7  1  0.75000000  0.25000000  0.25000000  1
  He  He8  1  0.00000000  0.00000000  0.00000000  1
  He  He9  1  0.50000000  0.50000000  0.50000000  1
  He  He10  1  0.00000000  0.30496998  0.15334720  1
  He  He11  1  -0.00000000  0.69503002  0.15334720  1
  He  He12  1  0.00000000  0.30496998  0.84665280  1
  He  He13  1  -0.00000000  0.69503002  0.84665280  1
  He  He14  1  0.15334720  0.00000000  0.30496998  1
  He  He15  1  0.15334720  -0.00000000  0.69503002  1
  He  He16  1  0.84665280  0.00000000  0.30496998  1
  He  He17  1  0.84665280  -0.00000000  0.69503002  1
  He  He18  1  0.30496998  0.15334720  -0.00000000  1
  He  He19  1  0.69503002  0.15334720  0.00000000  1
  He  He20  1  0.30496998  0.84665280  -0.00000000  1
  He  He21  1  0.69503002  0.84665280  0.00000000  1
  He  He22  1  0.80496998  0.50000000  0.34665280  1
  He  He23  1  0.19503002  0.50000000  0.34665280  1
  He  He24  1  0.80496998  0.50000000  0.65334720  1
  He  He25  1  0.19503002  0.50000000  0.65334720  1
  He  He26  1  0.50000000  0.65334720  0.19503002  1
  He  He27  1  0.50000000  0.65334720  0.80496998  1
  He  He28  1  0.50000000  0.34665280  0.19503002  1
  He  He29  1  0.50000000  0.34665280  0.80496998  1
  He  He30  1  0.65334720  0.80496998  0.50000000  1
  He  He31  1  0.65334720  0.19503002  0.50000000  1
  He  He32  1  0.34665280  0.80496998  0.50000000  1
  He  He33  1  0.34665280  0.19503002  0.50000000  1
  Li  Li34  1  0.25000000  0.50000000  -0.00000000  1
  Li  Li35  1  0.75000000  0.50000000  -0.00000000  1
  Li  Li36  1  -0.00000000  0.25000000  0.50000000  1
  Li  Li37  1  0.00000000  0.75000000  0.50000000  1
  Li  Li38  1  0.50000000  0.00000000  0.25000000  1
  Li  Li39  1  0.50000000  0.00000000  0.75000000  1
