# generated using pymatgen
data_HHe2(Li3Be)2
_symmetry_space_group_name_H-M   'P 1'
_cell_length_a   9.38749409
_cell_length_b   10.44332642
_cell_length_c   17.63964168
_cell_angle_alpha   90.00000000
_cell_angle_beta   90.00000000
_cell_angle_gamma   90.00000000
_symmetry_Int_Tables_number   1
_chemical_formula_structural   HHe2(Li3Be)2
_chemical_formula_sum   'H8 He16 Li48 Be16'
_cell_volume   1729.33164167
_cell_formula_units_Z   8
loop_
 _symmetry_equiv_pos_site_id
 _symmetry_equiv_pos_as_xyz
  1  'x, y, z'
loop_
 _atom_site_type_symbol
 _atom_site_label
 _atom_site_symmetry_multiplicity
 _atom_site_fract_x
 _atom_site_fract_y
 _atom_site_fract_z
 _atom_site_occupancy
  H  H0  1  0.63895007  0.09813690  0.12797316  1
  H  H1  1  0.86104993  0.59813690  0.87202684  1
  H  H2  1  0.36104993  0.40186310  0.62797316  1
  H  H3  1  0.13895007  0.90186310  0.37202684  1
  H  H4  1  0.36104993  0.90186310  0.87202684  1
  H  H5  1  0.13895007  0.40186310  0.12797316  1
  H  H6  1  0.63895007  0.59813690  0.37202684  1
  H  H7  1  0.86104993  0.09813690  0.62797316  1
  He  He8  1  0.38091714  0.74306410  0.16790695  1
  He  He9  1  0.11908286  0.24306410  0.83209305  1
  He  He10  1  0.61908286  0.75693590  0.66790695  1
  He  He11  1  0.88091714  0.25693590  0.33209305  1
  He  He12  1  0.61908286  0.25693590  0.83209305  1
  He  He13  1  0.88091714  0.75693590  0.16790695  1
  He  He14  1  0.38091714  0.24306410  0.33209305  1
  He  He15  1  0.11908286  0.74306410  0.66790695  1
  He  He16  1  0.85849329  0.01214458  0.91650222  1
  He  He17  1  0.64150671  0.51214458  0.08349778  1
  He  He18  1  0.14150671  0.48785542  0.41650222  1
  He  He19  1  0.35849329  0.98785542  0.58349778  1
  He  He20  1  0.14150671  0.98785542  0.08349778  1
  He  He21  1  0.35849329  0.48785542  0.91650222  1
  He  He22  1  0.85849329  0.51214458  0.58349778  1
  He  He23  1  0.64150671  0.01214458  0.41650222  1
  Li  Li24  1  0.54336276  0.95319697  0.21508385  1
  Li  Li25  1  0.95663724  0.45319697  0.78491615  1
  Li  Li26  1  0.45663724  0.54680303  0.71508385  1
  Li  Li27  1  0.04336276  0.04680303  0.28491615  1
  Li  Li28  1  0.45663724  0.04680303  0.78491615  1
  Li  Li29  1  0.04336276  0.54680303  0.21508385  1
  Li  Li30  1  0.54336276  0.45319697  0.28491615  1
  Li  Li31  1  0.95663724  0.95319697  0.71508385  1
  Li  Li32  1  0.84771374  0.10576516  0.20118515  1
  Li  Li33  1  0.65228626  0.60576516  0.79881485  1
  Li  Li34  1  0.15228626  0.39423484  0.70118515  1
  Li  Li35  1  0.34771374  0.89423484  0.29881485  1
  Li  Li36  1  0.15228626  0.89423484  0.79881485  1
  Li  Li37  1  0.34771374  0.39423484  0.20118515  1
  Li  Li38  1  0.84771374  0.60576516  0.29881485  1
  Li  Li39  1  0.65228626  0.10576516  0.70118515  1
  Li  Li40  1  0.56219712  0.26251271  0.20663227  1
  Li  Li41  1  0.93780288  0.76251271  0.79336773  1
  Li  Li42  1  0.43780288  0.23748729  0.70663227  1
  Li  Li43  1  0.06219712  0.73748729  0.29336773  1
  Li  Li44  1  0.43780288  0.73748729  0.79336773  1
  Li  Li45  1  0.06219712  0.23748729  0.20663227  1
  Li  Li46  1  0.56219712  0.76251271  0.29336773  1
  Li  Li47  1  0.93780288  0.26251271  0.70663227  1
  Li  Li48  1  0.71454805  0.26113592  0.04128302  1
  Li  Li49  1  0.78545195  0.76113592  0.95871698  1
  Li  Li50  1  0.28545195  0.23886408  0.54128302  1
  Li  Li51  1  0.21454805  0.73886408  0.45871698  1
  Li  Li52  1  0.28545195  0.73886408  0.95871698  1
  Li  Li53  1  0.21454805  0.23886408  0.04128302  1
  Li  Li54  1  0.71454805  0.76113592  0.45871698  1
  Li  Li55  1  0.78545195  0.26113592  0.54128302  1
  Li  Li56  1  0.72018475  0.92988709  0.04803728  1
  Li  Li57  1  0.77981525  0.42988709  0.95196272  1
  Li  Li58  1  0.27981525  0.57011291  0.54803728  1
  Li  Li59  1  0.22018475  0.07011291  0.45196272  1
  Li  Li60  1  0.27981525  0.07011291  0.95196272  1
  Li  Li61  1  0.22018475  0.57011291  0.04803728  1
  Li  Li62  1  0.72018475  0.42988709  0.45196272  1
  Li  Li63  1  0.77981525  0.92988709  0.54803728  1
  Li  Li64  1  0.41419756  0.09619387  0.06954715  1
  Li  Li65  1  0.08580244  0.59619387  0.93045285  1
  Li  Li66  1  0.58580244  0.40380613  0.56954715  1
  Li  Li67  1  0.91419756  0.90380613  0.43045285  1
  Li  Li68  1  0.58580244  0.90380613  0.93045285  1
  Li  Li69  1  0.91419756  0.40380613  0.06954715  1
  Li  Li70  1  0.41419756  0.59619387  0.43045285  1
  Li  Li71  1  0.08580244  0.09619387  0.56954715  1
  Be  Be72  1  0.46794004  0.85022968  0.25347492  1
  Be  Be73  1  0.03205996  0.35022968  0.74652508  1
  Be  Be74  1  0.53205996  0.64977032  0.75347492  1
  Be  Be75  1  0.96794004  0.14977032  0.24652508  1
  Be  Be76  1  0.53205996  0.14977032  0.74652508  1
  Be  Be77  1  0.96794004  0.64977032  0.25347492  1
  Be  Be78  1  0.46794004  0.35022968  0.24652508  1
  Be  Be79  1  0.03205996  0.85022968  0.75347492  1
  Be  Be80  1  0.77832639  0.38727351  0.03089635  1
  Be  Be81  1  0.72167361  0.88727351  0.96910365  1
  Be  Be82  1  0.22167361  0.11272649  0.53089635  1
  Be  Be83  1  0.27832639  0.61272649  0.46910365  1
  Be  Be84  1  0.22167361  0.61272649  0.96910365  1
  Be  Be85  1  0.27832639  0.11272649  0.03089635  1
  Be  Be86  1  0.77832639  0.88727351  0.46910365  1
  Be  Be87  1  0.72167361  0.38727351  0.53089635  1
