# generated using pymatgen
data_H2He8Li2Be
_symmetry_space_group_name_H-M   'P 1'
_cell_length_a   13.97032206
_cell_length_b   6.36723162
_cell_length_c   7.84443338
_cell_angle_alpha   80.58367317
_cell_angle_beta   90.00000000
_cell_angle_gamma   90.00000000
_symmetry_Int_Tables_number   1
_chemical_formula_structural   H2He8Li2Be
_chemical_formula_sum   'H8 He32 Li8 Be4'
_cell_volume   688.37802330
_cell_formula_units_Z   4
loop_
 _symmetry_equiv_pos_site_id
 _symmetry_equiv_pos_as_xyz
  1  'x, y, z'
loop_
 _atom_site_type_symbol
 _atom_site_label
 _atom_site_symmetry_multiplicity
 _atom_site_fract_x
 _atom_site_fract_y
 _atom_site_fract_z
 _atom_site_occupancy
  H  H0  1  0.29148024  0.84863291  0.05479446  1
  H  H1  1  0.79148024  0.65136709  0.94520554  1
  H  H2  1  0.70851976  0.15136709  0.94520554  1
  H  H3  1  0.20851976  0.34863291  0.05479446  1
  H  H4  1  0.64600792  0.08296171  0.51888187  1
  H  H5  1  0.14600792  0.41703829  0.48111813  1
  H  H6  1  0.35399208  0.91703829  0.48111813  1
  H  H7  1  0.85399208  0.58296171  0.51888187  1
  He  He8  1  0.44372419  0.64118270  0.36184623  1
  He  He9  1  0.94372419  0.85881730  0.63815377  1
  He  He10  1  0.55627581  0.35881730  0.63815377  1
  He  He11  1  0.05627581  0.14118270  0.36184623  1
  He  He12  1  0.63726048  0.68868193  0.46299259  1
  He  He13  1  0.13726048  0.81131807  0.53700741  1
  He  He14  1  0.36273952  0.31131807  0.53700741  1
  He  He15  1  0.86273952  0.18868193  0.46299259  1
  He  He16  1  0.67261258  0.80667958  0.10808238  1
  He  He17  1  0.17261258  0.69332042  0.89191762  1
  He  He18  1  0.32738742  0.19332042  0.89191762  1
  He  He19  1  0.82738742  0.30667958  0.10808238  1
  He  He20  1  0.58858917  0.41121234  0.22706236  1
  He  He21  1  0.08858917  0.08878766  0.77293764  1
  He  He22  1  0.41141083  0.58878766  0.77293764  1
  He  He23  1  0.91141083  0.91121234  0.22706236  1
  He  He24  1  0.48132166  0.75594317  0.02100406  1
  He  He25  1  0.98132166  0.74405683  0.97899594  1
  He  He26  1  0.51867834  0.24405683  0.97899594  1
  He  He27  1  0.01867834  0.25594317  0.02100406  1
  He  He28  1  0.54087738  0.02585512  0.27844139  1
  He  He29  1  0.04087738  0.47414488  0.72155861  1
  He  He30  1  0.45912262  0.97414488  0.72155861  1
  He  He31  1  0.95912262  0.52585512  0.27844139  1
  He  He32  1  0.41258707  0.30664171  0.22695264  1
  He  He33  1  0.91258707  0.19335829  0.77304736  1
  He  He34  1  0.58741293  0.69335829  0.77304736  1
  He  He35  1  0.08741293  0.80664171  0.22695264  1
  He  He36  1  0.27507757  0.53213263  0.28714929  1
  He  He37  1  0.77507757  0.96786737  0.71285071  1
  He  He38  1  0.72492243  0.46786737  0.71285071  1
  He  He39  1  0.22492243  0.03213263  0.28714929  1
  Li  Li40  1  0.37279881  0.45778608  0.36125009  1
  Li  Li41  1  0.87279881  0.04221392  0.63874991  1
  Li  Li42  1  0.62720119  0.54221392  0.63874991  1
  Li  Li43  1  0.12720119  0.95778608  0.36125009  1
  Li  Li44  1  0.51937238  0.24709226  0.17311719  1
  Li  Li45  1  0.01937238  0.25290774  0.82688281  1
  Li  Li46  1  0.48062762  0.75290774  0.82688281  1
  Li  Li47  1  0.98062762  0.74709226  0.17311719  1
  Be  Be48  1  0.57529252  0.72880877  0.22528886  1
  Be  Be49  1  0.07529252  0.77119123  0.77471114  1
  Be  Be50  1  0.42470748  0.27119123  0.77471114  1
  Be  Be51  1  0.92470748  0.22880877  0.22528886  1
