# generated using pymatgen
data_H2HeLi4
_symmetry_space_group_name_H-M   'P 1'
_cell_length_a   7.98634114
_cell_length_b   7.98634114
_cell_length_c   7.98634114
_cell_angle_alpha   95.70516412
_cell_angle_beta   95.70516412
_cell_angle_gamma   143.24304051
_symmetry_Int_Tables_number   1
_chemical_formula_structural   H2HeLi4
_chemical_formula_sum   'H4 He2 Li8'
_cell_volume   289.27757105
_cell_formula_units_Z   2
loop_
 _symmetry_equiv_pos_site_id
 _symmetry_equiv_pos_as_xyz
  1  'x, y, z'
loop_
 _atom_site_type_symbol
 _atom_site_label
 _atom_site_symmetry_multiplicity
 _atom_site_fract_x
 _atom_site_fract_y
 _atom_site_fract_z
 _atom_site_occupancy
  H  H0  1  0.13808048  0.36191952  0.50000000  1
  H  H1  1  0.86191952  0.63808048  0.50000000  1
  H  H2  1  0.36191952  0.86191952  0.22383904  1
  H  H3  1  0.63808048  0.13808048  0.77616096  1
  He  He4  1  0.25000000  0.25000000  0.00000000  1
  He  He5  1  0.75000000  0.75000000  0.00000000  1
  Li  Li6  1  0.08199391  0.80637979  0.88837370  1
  Li  Li7  1  0.91800609  0.19362021  0.11162630  1
  Li  Li8  1  0.80637979  0.91800609  0.72438589  1
  Li  Li9  1  0.19362021  0.08199391  0.27561411  1
  Li  Li10  1  0.41800609  0.30637979  0.72438589  1
  Li  Li11  1  0.58199391  0.69362021  0.27561411  1
  Li  Li12  1  0.69362021  0.41800609  0.11162630  1
  Li  Li13  1  0.30637979  0.58199391  0.88837370  1
