# generated using pymatgen
data_H5He3
_symmetry_space_group_name_H-M   'P 1'
_cell_length_a   8.12360855
_cell_length_b   8.12360855
_cell_length_c   6.26880722
_cell_angle_alpha   90.00000000
_cell_angle_beta   90.00000000
_cell_angle_gamma   120.00174224
_symmetry_Int_Tables_number   1
_chemical_formula_structural   H5He3
_chemical_formula_sum   'H10 He6'
_cell_volume   358.26624956
_cell_formula_units_Z   2
loop_
 _symmetry_equiv_pos_site_id
 _symmetry_equiv_pos_as_xyz
  1  'x, y, z'
loop_
 _atom_site_type_symbol
 _atom_site_label
 _atom_site_symmetry_multiplicity
 _atom_site_fract_x
 _atom_site_fract_y
 _atom_site_fract_z
 _atom_site_occupancy
  H  H0  1  0.33332523  0.66667477  -0.00000000  1
  H  H1  1  0.66667477  0.33332523  0.50000000  1
  H  H2  1  0.66667477  0.33332523  0.00000000  1
  H  H3  1  0.33332523  0.66667477  0.50000000  1
  H  H4  1  0.24596149  0.00001694  0.25000000  1
  H  H5  1  0.00001694  0.24596149  0.25000000  1
  H  H6  1  0.75401621  0.75401621  0.25000000  1
  H  H7  1  0.75403851  0.99998306  0.75000000  1
  H  H8  1  0.99998306  0.75403851  0.75000000  1
  H  H9  1  0.24598379  0.24598379  0.75000000  1
  He  He10  1  0.59961389  0.00000137  0.25000000  1
  He  He11  1  0.00000137  0.59961389  0.25000000  1
  He  He12  1  0.40039768  0.40039768  0.25000000  1
  He  He13  1  0.40038611  0.99999863  0.75000000  1
  He  He14  1  0.99999863  0.40038611  0.75000000  1
  He  He15  1  0.59960232  0.59960232  0.75000000  1
