# generated using pymatgen
data_H2HeLi4
_symmetry_space_group_name_H-M   'P 1'
_cell_length_a   6.02629989
_cell_length_b   6.02629989
_cell_length_c   6.02629989
_cell_angle_alpha   60.00000000
_cell_angle_beta   60.00000000
_cell_angle_gamma   60.00000000
_symmetry_Int_Tables_number   1
_chemical_formula_structural   H2HeLi4
_chemical_formula_sum   'H4 He2 Li8'
_cell_volume   154.75233864
_cell_formula_units_Z   2
loop_
 _symmetry_equiv_pos_site_id
 _symmetry_equiv_pos_as_xyz
  1  'x, y, z'
loop_
 _atom_site_type_symbol
 _atom_site_label
 _atom_site_symmetry_multiplicity
 _atom_site_fract_x
 _atom_site_fract_y
 _atom_site_fract_z
 _atom_site_occupancy
  H  H0  1  0.50000000  0.50000000  0.50000000  1
  H  H1  1  -0.00000000  0.50000000  0.00000000  1
  H  H2  1  0.50000000  0.50000000  0.00000000  1
  H  H3  1  0.50000000  0.00000000  -0.00000000  1
  He  He4  1  0.87500000  0.87500000  0.37500000  1
  He  He5  1  0.12500000  0.12500000  0.62500000  1
  Li  Li6  1  0.73778774  0.73778774  0.78663679  1
  Li  Li7  1  0.28663679  0.73778774  0.23778774  1
  Li  Li8  1  0.73778774  0.73778774  0.23778774  1
  Li  Li9  1  0.73778774  0.28663679  0.23778774  1
  Li  Li10  1  0.71336321  0.26221226  0.76221226  1
  Li  Li11  1  0.26221226  0.26221226  0.21336321  1
  Li  Li12  1  0.26221226  0.26221226  0.76221226  1
  Li  Li13  1  0.26221226  0.71336321  0.76221226  1
