# generated using pymatgen
data_HHeLi3
_symmetry_space_group_name_H-M   'P 1'
_cell_length_a   5.73786337
_cell_length_b   5.73786337
_cell_length_c   5.73786337
_cell_angle_alpha   58.87670814
_cell_angle_beta   58.87670814
_cell_angle_gamma   58.87670814
_symmetry_Int_Tables_number   1
_chemical_formula_structural   HHeLi3
_chemical_formula_sum   'H2 He2 Li6'
_cell_volume   130.15310458
_cell_formula_units_Z   2
loop_
 _symmetry_equiv_pos_site_id
 _symmetry_equiv_pos_as_xyz
  1  'x, y, z'
loop_
 _atom_site_type_symbol
 _atom_site_label
 _atom_site_symmetry_multiplicity
 _atom_site_fract_x
 _atom_site_fract_y
 _atom_site_fract_z
 _atom_site_occupancy
  H  H0  1  0.99923369  0.99923369  0.99923369  1
  H  H1  1  0.49923369  0.49923369  0.49923369  1
  He  He2  1  0.77886144  0.77886144  0.77886144  1
  He  He3  1  0.27886144  0.27886144  0.27886144  1
  Li  Li4  1  0.06566135  0.46493150  0.61301203  1
  Li  Li5  1  0.46493150  0.61301203  0.06566135  1
  Li  Li6  1  0.61301203  0.06566135  0.46493150  1
  Li  Li7  1  0.11301203  0.96493150  0.56566135  1
  Li  Li8  1  0.56566135  0.11301203  0.96493150  1
  Li  Li9  1  0.96493150  0.56566135  0.11301203  1
