# generated using pymatgen
data_H2He7Li2
_symmetry_space_group_name_H-M   'P 1'
_cell_length_a   3.98517413
_cell_length_b   17.21040041
_cell_length_c   18.16603368
_cell_angle_alpha   75.74661698
_cell_angle_beta   90.00000000
_cell_angle_gamma   90.00000000
_symmetry_Int_Tables_number   1
_chemical_formula_structural   H2He7Li2
_chemical_formula_sum   'H8 He28 Li8'
_cell_volume   1207.58896109
_cell_formula_units_Z   4
loop_
 _symmetry_equiv_pos_site_id
 _symmetry_equiv_pos_as_xyz
  1  'x, y, z'
loop_
 _atom_site_type_symbol
 _atom_site_label
 _atom_site_symmetry_multiplicity
 _atom_site_fract_x
 _atom_site_fract_y
 _atom_site_fract_z
 _atom_site_occupancy
  H  H0  1  -0.00000000  0.88905400  0.17054300  1
  H  H1  1  0.00000000  0.11094600  0.82945700  1
  H  H2  1  0.50000000  0.88907386  0.67055312  1
  H  H3  1  0.50000000  0.11092614  0.32944688  1
  H  H4  1  0.00000000  0.40004719  0.38179372  1
  H  H5  1  0.00000000  0.59995281  0.61820628  1
  H  H6  1  0.50000000  0.40000371  0.88196210  1
  H  H7  1  0.50000000  0.59999629  0.11803790  1
  He  He8  1  0.00000000  0.66801323  0.00031079  1
  He  He9  1  0.00000000  0.33198677  0.99968921  1
  He  He10  1  0.50000000  0.66800440  0.50043362  1
  He  He11  1  0.50000000  0.33199560  0.49956638  1
  He  He12  1  0.00000000  0.46686819  0.17639866  1
  He  He13  1  0.00000000  0.53313181  0.82360134  1
  He  He14  1  0.50000000  0.46687651  0.67637962  1
  He  He15  1  0.50000000  0.53312349  0.32362038  1
  He  He16  1  0.00000000  0.67965828  0.19067970  1
  He  He17  1  0.00000000  0.32034172  0.80932030  1
  He  He18  1  0.50000000  0.67978773  0.69066601  1
  He  He19  1  0.50000000  0.32021227  0.30933399  1
  He  He20  1  0.00000000  0.98052826  0.33829928  1
  He  He21  1  0.00000000  0.01947174  0.66170072  1
  He  He22  1  0.50000000  0.98051501  0.83820619  1
  He  He23  1  0.50000000  0.01948499  0.16179381  1
  He  He24  1  0.00000000  0.82823157  0.57417506  1
  He  He25  1  0.00000000  0.17176843  0.42582494  1
  He  He26  1  0.50000000  0.82819806  0.07416525  1
  He  He27  1  0.50000000  0.17180194  0.92583475  1
  He  He28  1  0.00000000  0.80494856  0.78050926  1
  He  He29  1  0.00000000  0.19505144  0.21949074  1
  He  He30  1  0.50000000  0.80493499  0.28055083  1
  He  He31  1  0.50000000  0.19506501  0.71944917  1
  He  He32  1  0.50000000  0.50000000  -0.00000000  1
  He  He33  1  0.00000000  0.50000000  0.50000000  1
  He  He34  1  0.00000000  0.00000000  0.00000000  1
  He  He35  1  0.50000000  -0.00000000  0.50000000  1
  Li  Li36  1  0.00000000  0.66258411  0.36627025  1
  Li  Li37  1  0.00000000  0.33741589  0.63372975  1
  Li  Li38  1  0.50000000  0.66256972  0.86620195  1
  Li  Li39  1  0.50000000  0.33743028  0.13379805  1
  Li  Li40  1  0.00000000  0.14980733  0.06557600  1
  Li  Li41  1  0.00000000  0.85019267  0.93442400  1
  Li  Li42  1  0.50000000  0.14980419  0.56552574  1
  Li  Li43  1  0.50000000  0.85019581  0.43447426  1
