# generated using pymatgen
data_H10He2Li4Be
_symmetry_space_group_name_H-M   'P 1'
_cell_length_a   8.13234875
_cell_length_b   6.45374626
_cell_length_c   12.37701965
_cell_angle_alpha   81.78124891
_cell_angle_beta   90.00000000
_cell_angle_gamma   90.00000000
_symmetry_Int_Tables_number   1
_chemical_formula_structural   H10He2Li4Be
_chemical_formula_sum   'H40 He8 Li16 Be4'
_cell_volume   642.92524126
_cell_formula_units_Z   4
loop_
 _symmetry_equiv_pos_site_id
 _symmetry_equiv_pos_as_xyz
  1  'x, y, z'
loop_
 _atom_site_type_symbol
 _atom_site_label
 _atom_site_symmetry_multiplicity
 _atom_site_fract_x
 _atom_site_fract_y
 _atom_site_fract_z
 _atom_site_occupancy
  H  H0  1  0.55459542  0.10678976  0.17989700  1
  H  H1  1  0.05459542  0.89321024  0.32010300  1
  H  H2  1  0.44540458  0.89321024  0.82010300  1
  H  H3  1  0.94540458  0.10678976  0.67989700  1
  H  H4  1  0.41401723  0.20437767  0.10000137  1
  H  H5  1  0.91401723  0.79562233  0.39999863  1
  H  H6  1  0.58598277  0.79562233  0.89999863  1
  H  H7  1  0.08598277  0.20437767  0.60000137  1
  H  H8  1  0.70511302  0.68720710  0.19682210  1
  H  H9  1  0.20511302  0.31279290  0.30317790  1
  H  H10  1  0.29488698  0.31279290  0.80317790  1
  H  H11  1  0.79488698  0.68720710  0.69682210  1
  H  H12  1  0.79428546  0.69578796  0.06870219  1
  H  H13  1  0.29428546  0.30421204  0.43129781  1
  H  H14  1  0.20571454  0.30421204  0.93129781  1
  H  H15  1  0.70571454  0.69578796  0.56870219  1
  H  H16  1  0.88478828  0.55668760  0.18022116  1
  H  H17  1  0.38478828  0.44331240  0.31977884  1
  H  H18  1  0.11521172  0.44331240  0.81977884  1
  H  H19  1  0.61521172  0.55668760  0.68022116  1
  H  H20  1  0.88778855  0.81991676  0.16387116  1
  H  H21  1  0.38778855  0.18008324  0.33612884  1
  H  H22  1  0.11221145  0.18008324  0.83612884  1
  H  H23  1  0.61221145  0.81991676  0.66387116  1
  H  H24  1  0.20865281  0.82388349  0.11280294  1
  H  H25  1  0.70865281  0.17611651  0.38719706  1
  H  H26  1  0.79134719  0.17611651  0.88719706  1
  H  H27  1  0.29134719  0.82388349  0.61280294  1
  H  H28  1  0.25238490  0.57295477  0.08912601  1
  H  H29  1  0.75238490  0.42704523  0.41087399  1
  H  H30  1  0.74761510  0.42704523  0.91087399  1
  H  H31  1  0.24761510  0.57295477  0.58912601  1
  H  H32  1  0.35659665  0.77727929  0.01893278  1
  H  H33  1  0.85659665  0.22272071  0.48106722  1
  H  H34  1  0.64340335  0.22272071  0.98106722  1
  H  H35  1  0.14340335  0.77727929  0.51893278  1
  H  H36  1  0.38654148  0.71013184  0.15698232  1
  H  H37  1  0.88654148  0.28986816  0.34301768  1
  H  H38  1  0.61345852  0.28986816  0.84301768  1
  H  H39  1  0.11345852  0.71013184  0.65698232  1
  He  He40  1  0.81534227  0.69069532  0.15275376  1
  He  He41  1  0.31534227  0.30930468  0.34724624  1
  He  He42  1  0.18465773  0.30930468  0.84724624  1
  He  He43  1  0.68465773  0.69069532  0.65275376  1
  He  He44  1  0.30043321  0.72146991  0.09384169  1
  He  He45  1  0.80043321  0.27853009  0.40615831  1
  He  He46  1  0.69956679  0.27853009  0.90615831  1
  He  He47  1  0.19956679  0.72146991  0.59384169  1
  Li  Li48  1  0.70692697  0.70532661  0.42539393  1
  Li  Li49  1  0.20692697  0.29467339  0.07460607  1
  Li  Li50  1  0.29307303  0.29467339  0.57460607  1
  Li  Li51  1  0.79307303  0.70532661  0.92539393  1
  Li  Li52  1  0.56408604  0.01196130  0.32585166  1
  Li  Li53  1  0.06408604  0.98803870  0.17414834  1
  Li  Li54  1  0.43591396  0.98803870  0.67414834  1
  Li  Li55  1  0.93591396  0.01196130  0.82585166  1
  Li  Li56  1  0.51866450  0.66016448  0.27628288  1
  Li  Li57  1  0.01866450  0.33983552  0.22371712  1
  Li  Li58  1  0.48133550  0.33983552  0.72371712  1
  Li  Li59  1  0.98133550  0.66016448  0.77628288  1
  Li  Li60  1  0.53339143  0.17400189  0.10422945  1
  Li  Li61  1  0.03339143  0.82599811  0.39577055  1
  Li  Li62  1  0.46660857  0.82599811  0.89577055  1
  Li  Li63  1  0.96660857  0.17400189  0.60422945  1
  Be  Be64  1  0.53806413  0.78048497  0.37578747  1
  Be  Be65  1  0.03806413  0.21951503  0.12421253  1
  Be  Be66  1  0.46193587  0.21951503  0.62421253  1
  Be  Be67  1  0.96193587  0.78048497  0.87578747  1
