# generated using pymatgen
data_H2He3Li2
_symmetry_space_group_name_H-M   'P 1'
_cell_length_a   5.47739259
_cell_length_b   5.47739259
_cell_length_c   5.47739259
_cell_angle_alpha   59.18904155
_cell_angle_beta   59.18904155
_cell_angle_gamma   59.18904155
_symmetry_Int_Tables_number   1
_chemical_formula_structural   H2He3Li2
_chemical_formula_sum   'H2 He3 Li2'
_cell_volume   114.05300836
_cell_formula_units_Z   1
loop_
 _symmetry_equiv_pos_site_id
 _symmetry_equiv_pos_as_xyz
  1  'x, y, z'
loop_
 _atom_site_type_symbol
 _atom_site_label
 _atom_site_symmetry_multiplicity
 _atom_site_fract_x
 _atom_site_fract_y
 _atom_site_fract_z
 _atom_site_occupancy
  H  H0  1  -0.00000000  0.00000000  -0.00000000  1
  H  H1  1  0.50000000  0.50000000  0.50000000  1
  He  He2  1  0.50000000  0.00000000  0.50000000  1
  He  He3  1  -0.00000000  0.50000000  0.50000000  1
  He  He4  1  0.50000000  0.50000000  0.00000000  1
  Li  Li5  1  0.77773913  0.77773913  0.77773913  1
  Li  Li6  1  0.22226087  0.22226087  0.22226087  1
