# generated using pymatgen
data_H3HeLi5
_symmetry_space_group_name_H-M   'P 1'
_cell_length_a   8.76500873
_cell_length_b   9.83503987
_cell_length_c   11.67823634
_cell_angle_alpha   90.00000000
_cell_angle_beta   90.00000000
_cell_angle_gamma   90.00000000
_symmetry_Int_Tables_number   1
_chemical_formula_structural   H3HeLi5
_chemical_formula_sum   'H12 He4 Li20'
_cell_volume   1006.71314111
_cell_formula_units_Z   4
loop_
 _symmetry_equiv_pos_site_id
 _symmetry_equiv_pos_as_xyz
  1  'x, y, z'
loop_
 _atom_site_type_symbol
 _atom_site_label
 _atom_site_symmetry_multiplicity
 _atom_site_fract_x
 _atom_site_fract_y
 _atom_site_fract_z
 _atom_site_occupancy
  H  H0  1  0.10093446  0.98343807  0.18180334  1
  H  H1  1  0.60093446  0.01656193  0.31819666  1
  H  H2  1  0.89906554  0.48343807  0.81819666  1
  H  H3  1  0.39906554  0.51656193  0.68180334  1
  H  H4  1  0.89906554  0.01656193  0.81819666  1
  H  H5  1  0.39906554  0.98343807  0.68180334  1
  H  H6  1  0.10093446  0.51656193  0.18180334  1
  H  H7  1  0.60093446  0.48343807  0.31819666  1
  H  H8  1  0.08927322  0.25000000  0.48559745  1
  H  H9  1  0.58927322  0.75000000  0.01440255  1
  H  H10  1  0.91072678  0.75000000  0.51440255  1
  H  H11  1  0.41072678  0.25000000  0.98559745  1
  He  He12  1  0.81676071  0.25000000  0.08435790  1
  He  He13  1  0.31676071  0.75000000  0.41564210  1
  He  He14  1  0.18323929  0.75000000  0.91564210  1
  He  He15  1  0.68323929  0.25000000  0.58435790  1
  Li  Li16  1  0.88185219  0.25000000  0.27033991  1
  Li  Li17  1  0.38185219  0.75000000  0.22966009  1
  Li  Li18  1  0.11814781  0.75000000  0.72966009  1
  Li  Li19  1  0.61814781  0.25000000  0.77033991  1
  Li  Li20  1  0.19260471  0.55297304  0.45107094  1
  Li  Li21  1  0.69260471  0.44702696  0.04892906  1
  Li  Li22  1  0.80739529  0.05297304  0.54892906  1
  Li  Li23  1  0.30739529  0.94702696  0.95107094  1
  Li  Li24  1  0.80739529  0.44702696  0.54892906  1
  Li  Li25  1  0.30739529  0.55297304  0.95107094  1
  Li  Li26  1  0.19260471  0.94702696  0.45107094  1
  Li  Li27  1  0.69260471  0.05297304  0.04892906  1
  Li  Li28  1  0.03825580  0.25000000  0.98319689  1
  Li  Li29  1  0.53825580  0.75000000  0.51680311  1
  Li  Li30  1  0.96174420  0.75000000  0.01680311  1
  Li  Li31  1  0.46174420  0.25000000  0.48319689  1
  Li  Li32  1  0.34125880  0.25000000  0.25806777  1
  Li  Li33  1  0.84125880  0.75000000  0.24193223  1
  Li  Li34  1  0.65874120  0.75000000  0.74193223  1
  Li  Li35  1  0.15874120  0.25000000  0.75806777  1
