# generated using pymatgen
data_HHe(Li3Be)2
_symmetry_space_group_name_H-M   'P 1'
_cell_length_a   9.89223337
_cell_length_b   9.89223337
_cell_length_c   12.01728253
_cell_angle_alpha   89.80142834
_cell_angle_beta   89.80142834
_cell_angle_gamma   90.30832974
_symmetry_Int_Tables_number   1
_chemical_formula_structural   HHe(Li3Be)2
_chemical_formula_sum   'H8 He8 Li48 Be16'
_cell_volume   1175.93534906
_cell_formula_units_Z   8
loop_
 _symmetry_equiv_pos_site_id
 _symmetry_equiv_pos_as_xyz
  1  'x, y, z'
loop_
 _atom_site_type_symbol
 _atom_site_label
 _atom_site_symmetry_multiplicity
 _atom_site_fract_x
 _atom_site_fract_y
 _atom_site_fract_z
 _atom_site_occupancy
  H  H0  1  0.99871534  0.74672028  0.47110445  1
  H  H1  1  0.25327972  0.00128466  0.02889555  1
  H  H2  1  0.00128466  0.25327972  0.52889555  1
  H  H3  1  0.74672028  0.99871534  0.97110445  1
  H  H4  1  0.22124879  0.46907220  0.04416367  1
  H  H5  1  0.53092780  0.77875121  0.45583633  1
  H  H6  1  0.77875121  0.53092780  0.95583633  1
  H  H7  1  0.46907220  0.22124879  0.54416367  1
  He  He8  1  0.22769973  0.38797355  0.37243964  1
  He  He9  1  0.61202645  0.77230027  0.12756036  1
  He  He10  1  0.77230027  0.61202645  0.62756036  1
  He  He11  1  0.38797355  0.22769973  0.87243964  1
  He  He12  1  0.88286780  0.25597415  0.06767019  1
  He  He13  1  0.74402585  0.11713220  0.43232981  1
  He  He14  1  0.11713220  0.74402585  0.93232981  1
  He  He15  1  0.25597415  0.88286780  0.56767019  1
  Li  Li16  1  0.55527756  0.45217757  0.35678639  1
  Li  Li17  1  0.54782243  0.44472244  0.14321361  1
  Li  Li18  1  0.44472244  0.54782243  0.64321361  1
  Li  Li19  1  0.45217757  0.55527756  0.85678639  1
  Li  Li20  1  0.78967581  0.44995242  0.28224303  1
  Li  Li21  1  0.55004758  0.21032419  0.21775697  1
  Li  Li22  1  0.21032419  0.55004758  0.71775697  1
  Li  Li23  1  0.44995242  0.78967581  0.78224303  1
  Li  Li24  1  0.96815374  0.63227957  0.25440861  1
  Li  Li25  1  0.36772043  0.03184626  0.24559139  1
  Li  Li26  1  0.03184626  0.36772043  0.74559139  1
  Li  Li27  1  0.63227957  0.96815374  0.75440861  1
  Li  Li28  1  0.94727060  0.87100975  0.25770831  1
  Li  Li29  1  0.12899025  0.05272940  0.24229169  1
  Li  Li30  1  0.05272940  0.12899025  0.74229169  1
  Li  Li31  1  0.87100975  0.94727060  0.75770831  1
  Li  Li32  1  0.33446872  0.47947553  0.25896272  1
  Li  Li33  1  0.52052447  0.66553128  0.24103728  1
  Li  Li34  1  0.66553128  0.52052447  0.74103728  1
  Li  Li35  1  0.47947553  0.33446872  0.75896272  1
  Li  Li36  1  0.74181124  0.57540394  0.46447707  1
  Li  Li37  1  0.42459606  0.25818876  0.03552293  1
  Li  Li38  1  0.25818876  0.42459606  0.53552293  1
  Li  Li39  1  0.57540394  0.74181124  0.96447707  1
  Li  Li40  1  0.31448214  0.72617591  0.95780390  1
  Li  Li41  1  0.27382409  0.68551786  0.54219610  1
  Li  Li42  1  0.68551786  0.27382409  0.04219610  1
  Li  Li43  1  0.72617591  0.31448214  0.45780390  1
  Li  Li44  1  0.96369662  0.41980640  0.13417456  1
  Li  Li45  1  0.58019360  0.03630338  0.36582544  1
  Li  Li46  1  0.03630338  0.58019360  0.86582544  1
  Li  Li47  1  0.41980640  0.96369662  0.63417456  1
  Li  Li48  1  0.03394565  0.41591765  0.34394951  1
  Li  Li49  1  0.58408235  0.96605435  0.15605049  1
  Li  Li50  1  0.96605435  0.58408235  0.65605049  1
  Li  Li51  1  0.41591765  0.03394565  0.84394951  1
  Li  Li52  1  0.80891717  0.74174493  0.11135158  1
  Li  Li53  1  0.25825507  0.19108283  0.38864842  1
  Li  Li54  1  0.19108283  0.25825507  0.88864842  1
  Li  Li55  1  0.74174493  0.80891717  0.61135158  1
  Li  Li56  1  0.06747574  0.76473480  0.08920129  1
  Li  Li57  1  0.23526520  0.93252426  0.41079871  1
  Li  Li58  1  0.93252426  0.23526520  0.91079871  1
  Li  Li59  1  0.76473480  0.06747574  0.58920129  1
  Li  Li60  1  0.91554236  0.08664599  0.35904158  1
  Li  Li61  1  0.91335401  0.08445764  0.14095842  1
  Li  Li62  1  0.08445764  0.91335401  0.64095842  1
  Li  Li63  1  0.08664599  0.91554236  0.85904158  1
  Be  Be64  1  0.48018331  0.51981669  0.25000000  1
  Be  Be65  1  0.51981669  0.48018331  0.75000000  1
  Be  Be66  1  0.71060247  0.44857108  0.40092609  1
  Be  Be67  1  0.55142892  0.28939753  0.09907391  1
  Be  Be68  1  0.28939753  0.55142892  0.59907391  1
  Be  Be69  1  0.44857108  0.71060247  0.90092609  1
  Be  Be70  1  0.94803468  0.46929330  0.25183356  1
  Be  Be71  1  0.53070670  0.05196532  0.24816644  1
  Be  Be72  1  0.05196532  0.53070670  0.74816644  1
  Be  Be73  1  0.46929330  0.94803468  0.75183356  1
  Be  Be74  1  0.94611938  0.75297997  0.16333915  1
  Be  Be75  1  0.24702003  0.05388062  0.33666085  1
  Be  Be76  1  0.05388062  0.24702003  0.83666085  1
  Be  Be77  1  0.75297997  0.94611938  0.66333915  1
  Be  Be78  1  0.96569049  0.03430951  0.25000000  1
  Be  Be79  1  0.03430951  0.96569049  0.75000000  1
