# generated using pymatgen
data_HHe2Li3
_symmetry_space_group_name_H-M   'P 1'
_cell_length_a   5.20816424
_cell_length_b   5.20816424
_cell_length_c   6.14653398
_cell_angle_alpha   79.87600331
_cell_angle_beta   79.87600331
_cell_angle_gamma   61.41764506
_symmetry_Int_Tables_number   1
_chemical_formula_structural   HHe2Li3
_chemical_formula_sum   'H2 He4 Li6'
_cell_volume   143.31344279
_cell_formula_units_Z   2
loop_
 _symmetry_equiv_pos_site_id
 _symmetry_equiv_pos_as_xyz
  1  'x, y, z'
loop_
 _atom_site_type_symbol
 _atom_site_label
 _atom_site_symmetry_multiplicity
 _atom_site_fract_x
 _atom_site_fract_y
 _atom_site_fract_z
 _atom_site_occupancy
  H  H0  1  0.33609474  0.33609474  0.24844973  1
  H  H1  1  0.66390526  0.66390526  0.75155027  1
  He  He2  1  -0.00000000  0.00000000  0.00000000  1
  He  He3  1  -0.00000000  -0.00000000  0.50000000  1
  He  He4  1  0.32878433  0.32878433  0.75286175  1
  He  He5  1  0.67121567  0.67121567  0.24713825  1
  Li  Li6  1  0.18803637  0.61064928  0.28544507  1
  Li  Li7  1  0.38935072  0.81196363  0.71455493  1
  Li  Li8  1  0.81196363  0.38935072  0.71455493  1
  Li  Li9  1  0.61064928  0.18803637  0.28544507  1
  Li  Li10  1  0.20996535  0.20996535  0.17448095  1
  Li  Li11  1  0.79003465  0.79003465  0.82551905  1
