# generated using pymatgen
data_HHe4Li(Be7B2)2
_symmetry_space_group_name_H-M   'P 1'
_cell_length_a   4.98241534
_cell_length_b   7.63639306
_cell_length_c   7.89253355
_cell_angle_alpha   81.89188896
_cell_angle_beta   83.21885995
_cell_angle_gamma   73.43335670
_symmetry_Int_Tables_number   1
_chemical_formula_structural   HHe4Li(Be7B2)2
_chemical_formula_sum   'H1 He4 Li1 Be14 B4'
_cell_volume   283.98898387
_cell_formula_units_Z   1
loop_
 _symmetry_equiv_pos_site_id
 _symmetry_equiv_pos_as_xyz
  1  'x, y, z'
loop_
 _atom_site_type_symbol
 _atom_site_label
 _atom_site_symmetry_multiplicity
 _atom_site_fract_x
 _atom_site_fract_y
 _atom_site_fract_z
 _atom_site_occupancy
  H  H0  1  -0.00000000  0.50000000  0.00000000  1
  He  He1  1  0.68526721  0.00152326  0.38431411  1
  He  He2  1  0.31473279  0.99847674  0.61568589  1
  He  He3  1  0.10955099  0.77664293  0.41691635  1
  He  He4  1  0.89044901  0.22335707  0.58308365  1
  Li  Li5  1  -0.00000000  0.00000000  -0.00000000  1
  Be  Be6  1  0.36603653  0.42337854  0.35478177  1
  Be  Be7  1  0.63396347  0.57662146  0.64521823  1
  Be  Be8  1  0.16665485  0.16270716  0.48087407  1
  Be  Be9  1  0.83334515  0.83729284  0.51912593  1
  Be  Be10  1  0.16628284  0.26929171  0.15233100  1
  Be  Be11  1  0.83371716  0.73070829  0.84766900  1
  Be  Be12  1  0.61198099  0.09590851  0.28361899  1
  Be  Be13  1  0.38801901  0.90409149  0.71638101  1
  Be  Be14  1  0.29041777  0.76523943  0.33446476  1
  Be  Be15  1  0.70958223  0.23476057  0.66553524  1
  Be  Be16  1  0.24571350  0.62429021  0.07073145  1
  Be  Be17  1  0.75428650  0.37570979  0.92926855  1
  Be  Be18  1  0.72131136  0.58406168  0.18666325  1
  Be  Be19  1  0.27868864  0.41593832  0.81333675  1
  B  B20  1  0.31221091  0.23254032  0.31682272  1
  B  B21  1  0.68778909  0.76745968  0.68317728  1
  B  B22  1  0.41229791  0.59858145  0.22877805  1
  B  B23  1  0.58770209  0.40141855  0.77122195  1
