# generated using pymatgen
data_HHeLi2
_symmetry_space_group_name_H-M   'P 1'
_cell_length_a   7.45479216
_cell_length_b   7.45479216
_cell_length_c   7.45479216
_cell_angle_alpha   131.62191321
_cell_angle_beta   131.62191321
_cell_angle_gamma   70.82683337
_symmetry_Int_Tables_number   1
_chemical_formula_structural   HHeLi2
_chemical_formula_sum   'H2 He2 Li4'
_cell_volume   226.75401541
_cell_formula_units_Z   2
loop_
 _symmetry_equiv_pos_site_id
 _symmetry_equiv_pos_as_xyz
  1  'x, y, z'
loop_
 _atom_site_type_symbol
 _atom_site_label
 _atom_site_symmetry_multiplicity
 _atom_site_fract_x
 _atom_site_fract_y
 _atom_site_fract_z
 _atom_site_occupancy
  H  H0  1  0.00000000  0.00000000  0.00000000  1
  H  H1  1  0.75000000  0.25000000  0.50000000  1
  He  He2  1  0.50000000  0.50000000  0.00000000  1
  He  He3  1  0.25000000  0.75000000  0.50000000  1
  Li  Li4  1  0.37500000  0.36507561  0.49007561  1
  Li  Li5  1  0.87500000  0.88492439  0.50992439  1
  Li  Li6  1  0.63492439  0.12500000  0.00992439  1
  Li  Li7  1  0.11507561  0.62500000  0.99007561  1
