# generated using pymatgen
data_HHeLi4Be
_symmetry_space_group_name_H-M   'P 1'
_cell_length_a   5.23517581
_cell_length_b   5.23509315
_cell_length_c   8.78599725
_cell_angle_alpha   90.00000000
_cell_angle_beta   90.00000000
_cell_angle_gamma   120.00245736
_symmetry_Int_Tables_number   1
_chemical_formula_structural   HHeLi4Be
_chemical_formula_sum   'H2 He2 Li8 Be2'
_cell_volume   208.52907846
_cell_formula_units_Z   2
loop_
 _symmetry_equiv_pos_site_id
 _symmetry_equiv_pos_as_xyz
  1  'x, y, z'
loop_
 _atom_site_type_symbol
 _atom_site_label
 _atom_site_symmetry_multiplicity
 _atom_site_fract_x
 _atom_site_fract_y
 _atom_site_fract_z
 _atom_site_occupancy
  H  H0  1  0.00000236  0.00000415  0.00089989  1
  H  H1  1  0.99999764  0.99999585  0.50089989  1
  He  He2  1  0.33333349  0.66665858  0.31577976  1
  He  He3  1  0.66666651  0.33334142  0.81577976  1
  Li  Li4  1  0.66668773  0.33337298  0.03745197  1
  Li  Li5  1  0.33331227  0.66662702  0.53745197  1
  Li  Li6  1  0.94084006  0.59729852  0.26232133  1
  Li  Li7  1  0.40272535  0.34354863  0.26230931  1
  Li  Li8  1  0.65644763  0.05918309  0.26230049  1
  Li  Li9  1  0.05915994  0.40270148  0.76232133  1
  Li  Li10  1  0.59727465  0.65645137  0.76230931  1
  Li  Li11  1  0.34355237  0.94081691  0.76230049  1
  Be  Be12  1  0.66666775  0.33333545  0.20709725  1
  Be  Be13  1  0.33333225  0.66666455  0.70709725  1
