# generated using pymatgen
data_H2He3
_symmetry_space_group_name_H-M   'P 1'
_cell_length_a   13.31908121
_cell_length_b   13.31908121
_cell_length_c   13.31908121
_cell_angle_alpha   60.00000000
_cell_angle_beta   60.00000000
_cell_angle_gamma   60.00000000
_symmetry_Int_Tables_number   1
_chemical_formula_structural   H2He3
_chemical_formula_sum   'H18 He27'
_cell_volume   1670.73589518
_cell_formula_units_Z   9
loop_
 _symmetry_equiv_pos_site_id
 _symmetry_equiv_pos_as_xyz
  1  'x, y, z'
loop_
 _atom_site_type_symbol
 _atom_site_label
 _atom_site_symmetry_multiplicity
 _atom_site_fract_x
 _atom_site_fract_y
 _atom_site_fract_z
 _atom_site_occupancy
  H  H0  1  0.33059662  0.33059662  0.66940338  1
  H  H1  1  0.66940338  0.66940338  0.33059662  1
  H  H2  1  0.66940338  0.33059662  0.33059662  1
  H  H3  1  0.33059662  0.66940338  0.66940338  1
  H  H4  1  0.33059662  0.66940338  0.33059662  1
  H  H5  1  0.66940338  0.33059662  0.66940338  1
  H  H6  1  0.99675182  0.34501006  0.99675182  1
  H  H7  1  0.99675182  0.66148631  0.99675182  1
  H  H8  1  0.66148631  0.99675182  0.34501006  1
  H  H9  1  0.34501006  0.99675182  0.66148631  1
  H  H10  1  0.99675182  0.99675182  0.34501006  1
  H  H11  1  0.99675182  0.99675182  0.66148631  1
  H  H12  1  0.34501006  0.66148631  0.99675182  1
  H  H13  1  0.66148631  0.34501006  0.99675182  1
  H  H14  1  0.34501006  0.99675182  0.99675182  1
  H  H15  1  0.66148631  0.99675182  0.99675182  1
  H  H16  1  0.99675182  0.34501006  0.66148631  1
  H  H17  1  0.99675182  0.66148631  0.34501006  1
  He  He18  1  0.25000000  0.25000000  0.25000000  1
  He  He19  1  0.59366169  0.59366169  0.59366169  1
  He  He20  1  0.59366169  0.21901494  0.59366169  1
  He  He21  1  0.21901494  0.59366169  0.59366169  1
  He  He22  1  0.59366169  0.59366169  0.21901494  1
  He  He23  1  0.92460486  0.92460486  0.92460486  1
  He  He24  1  0.92460486  0.22618542  0.92460486  1
  He  He25  1  0.22618542  0.92460486  0.92460486  1
  He  He26  1  0.92460486  0.92460486  0.22618542  1
  He  He27  1  0.59864664  0.90135336  0.59864664  1
  He  He28  1  0.90135336  0.59864664  0.90135336  1
  He  He29  1  0.59864664  0.59864664  0.90135336  1
  He  He30  1  0.90135336  0.90135336  0.59864664  1
  He  He31  1  0.90135336  0.59864664  0.59864664  1
  He  He32  1  0.59864664  0.90135336  0.90135336  1
  He  He33  1  0.25893279  0.93236339  0.25893279  1
  He  He34  1  0.25893279  0.54977104  0.25893279  1
  He  He35  1  0.54977104  0.25893279  0.93236339  1
  He  He36  1  0.93236339  0.25893279  0.54977104  1
  He  He37  1  0.25893279  0.25893279  0.93236339  1
  He  He38  1  0.25893279  0.25893279  0.54977104  1
  He  He39  1  0.93236339  0.54977104  0.25893279  1
  He  He40  1  0.54977104  0.93236339  0.25893279  1
  He  He41  1  0.93236339  0.25893279  0.25893279  1
  He  He42  1  0.54977104  0.25893279  0.25893279  1
  He  He43  1  0.25893279  0.93236339  0.54977104  1
  He  He44  1  0.25893279  0.54977104  0.93236339  1
