# generated using pymatgen
data_H6HeLi3
_symmetry_space_group_name_H-M   'P 1'
_cell_length_a   8.63325460
_cell_length_b   8.63325460
_cell_length_c   10.33594177
_cell_angle_alpha   87.38159282
_cell_angle_beta   87.38159282
_cell_angle_gamma   61.58950451
_symmetry_Int_Tables_number   1
_chemical_formula_structural   H6HeLi3
_chemical_formula_sum   'H36 He6 Li18'
_cell_volume   676.62850629
_cell_formula_units_Z   6
loop_
 _symmetry_equiv_pos_site_id
 _symmetry_equiv_pos_as_xyz
  1  'x, y, z'
loop_
 _atom_site_type_symbol
 _atom_site_label
 _atom_site_symmetry_multiplicity
 _atom_site_fract_x
 _atom_site_fract_y
 _atom_site_fract_z
 _atom_site_occupancy
  H  H0  1  0.94849742  0.90887473  0.16073947  1
  H  H1  1  0.09112527  0.05150258  0.33926053  1
  H  H2  1  0.05150258  0.09112527  0.83926053  1
  H  H3  1  0.90887473  0.94849742  0.66073947  1
  H  H4  1  0.09249857  0.75993916  0.43728812  1
  H  H5  1  0.24006084  0.90750143  0.06271188  1
  H  H6  1  0.90750143  0.24006084  0.56271188  1
  H  H7  1  0.75993916  0.09249857  0.93728812  1
  H  H8  1  0.23955195  0.55927245  0.20075309  1
  H  H9  1  0.44072755  0.76044805  0.29924691  1
  H  H10  1  0.76044805  0.44072755  0.79924691  1
  H  H11  1  0.55927245  0.23955195  0.70075309  1
  H  H12  1  0.10964963  0.41319030  0.39885697  1
  H  H13  1  0.58680970  0.89035037  0.10114303  1
  H  H14  1  0.89035037  0.58680970  0.60114303  1
  H  H15  1  0.41319030  0.10964963  0.89885697  1
  H  H16  1  0.22316498  0.25598924  0.17823027  1
  H  H17  1  0.74401076  0.77683502  0.32176973  1
  H  H18  1  0.77683502  0.74401076  0.82176973  1
  H  H19  1  0.25598924  0.22316498  0.67823027  1
  H  H20  1  0.88222318  0.56786073  0.09611979  1
  H  H21  1  0.43213927  0.11777682  0.40388021  1
  H  H22  1  0.11777682  0.43213927  0.90388021  1
  H  H23  1  0.56786073  0.88222318  0.59611979  1
  H  H24  1  0.76929390  0.44737118  0.30210814  1
  H  H25  1  0.55262882  0.23070610  0.19789186  1
  H  H26  1  0.23070610  0.55262882  0.69789186  1
  H  H27  1  0.44737118  0.76929390  0.80210814  1
  H  H28  1  0.57382148  0.56927918  0.07172842  1
  H  H29  1  0.43072082  0.42617852  0.42827158  1
  H  H30  1  0.42617852  0.43072082  0.92827158  1
  H  H31  1  0.56927918  0.57382148  0.57172842  1
  H  H32  1  0.90865932  0.23621152  0.07056718  1
  H  H33  1  0.76378848  0.09134068  0.42943282  1
  H  H34  1  0.09134068  0.76378848  0.92943282  1
  H  H35  1  0.23621152  0.90865932  0.57056718  1
  He  He36  1  0.33415619  0.33760822  0.30243729  1
  He  He37  1  0.66239178  0.66584381  0.19756271  1
  He  He38  1  0.66584381  0.66239178  0.69756271  1
  He  He39  1  0.33760822  0.33415619  0.80243729  1
  He  He40  1  -0.00000000  -0.00000000  0.00000000  1
  He  He41  1  -0.00000000  -0.00000000  0.50000000  1
  Li  Li42  1  0.10096534  0.57284554  0.05642585  1
  Li  Li43  1  0.42715446  0.89903466  0.44357415  1
  Li  Li44  1  0.89903466  0.42715446  0.94357415  1
  Li  Li45  1  0.57284554  0.10096534  0.55642585  1
  Li  Li46  1  0.93807638  0.65505337  0.42746261  1
  Li  Li47  1  0.34494663  0.06192362  0.07253739  1
  Li  Li48  1  0.06192362  0.34494663  0.57253739  1
  Li  Li49  1  0.65505337  0.93807638  0.92746261  1
  Li  Li50  1  0.99811341  0.27517700  0.24040314  1
  Li  Li51  1  0.72482300  0.00188659  0.25959686  1
  Li  Li52  1  0.00188659  0.72482300  0.75959686  1
  Li  Li53  1  0.27517700  0.99811341  0.74040314  1
  Li  Li54  1  0.62292307  0.32388087  0.04947581  1
  Li  Li55  1  0.67611913  0.37707693  0.45052419  1
  Li  Li56  1  0.37707693  0.67611913  0.95052419  1
  Li  Li57  1  0.32388087  0.62292307  0.54947581  1
  Li  Li58  1  0.19840627  0.80159373  0.25000000  1
  Li  Li59  1  0.80159373  0.19840627  0.75000000  1
