# generated using pymatgen
data_HHe2Li17
_symmetry_space_group_name_H-M   'P 1'
_cell_length_a   10.49131848
_cell_length_b   10.49131848
_cell_length_c   10.49131848
_cell_angle_alpha   60.00000000
_cell_angle_beta   60.00000000
_cell_angle_gamma   60.00000000
_symmetry_Int_Tables_number   1
_chemical_formula_structural   HHe2Li17
_chemical_formula_sum   'H2 He4 Li34'
_cell_volume   816.53577088
_cell_formula_units_Z   2
loop_
 _symmetry_equiv_pos_site_id
 _symmetry_equiv_pos_as_xyz
  1  'x, y, z'
loop_
 _atom_site_type_symbol
 _atom_site_label
 _atom_site_symmetry_multiplicity
 _atom_site_fract_x
 _atom_site_fract_y
 _atom_site_fract_z
 _atom_site_occupancy
  H  H0  1  0.87500000  0.37500000  0.37500000  1
  H  H1  1  0.12500000  0.62500000  0.62500000  1
  He  He2  1  0.00000000  -0.00000000  -0.00000000  1
  He  He3  1  0.50000000  0.50000000  0.00000000  1
  He  He4  1  0.50000000  -0.00000000  0.50000000  1
  He  He5  1  0.50000000  0.00000000  -0.00000000  1
  Li  Li6  1  0.49445496  0.76547183  0.37003660  1
  Li  Li7  1  0.26547183  0.99445496  0.37003660  1
  Li  Li8  1  0.87003660  0.37003660  0.99445496  1
  Li  Li9  1  0.87003660  0.37003660  0.76547183  1
  Li  Li10  1  0.49445496  0.37003660  0.37003660  1
  Li  Li11  1  0.26547183  0.37003660  0.37003660  1
  Li  Li12  1  0.87003660  0.99445496  0.76547183  1
  Li  Li13  1  0.87003660  0.76547183  0.99445496  1
  Li  Li14  1  0.49445496  0.37003660  0.76547183  1
  Li  Li15  1  0.26547183  0.37003660  0.99445496  1
  Li  Li16  1  0.87003660  0.76547183  0.37003660  1
  Li  Li17  1  0.87003660  0.99445496  0.37003660  1
  Li  Li18  1  0.73452817  0.00554504  0.62996340  1
  Li  Li19  1  0.50554504  0.23452817  0.62996340  1
  Li  Li20  1  0.12996340  0.62996340  0.00554504  1
  Li  Li21  1  0.12996340  0.62996340  0.23452817  1
  Li  Li22  1  0.12996340  0.00554504  0.62996340  1
  Li  Li23  1  0.12996340  0.23452817  0.62996340  1
  Li  Li24  1  0.50554504  0.62996340  0.23452817  1
  Li  Li25  1  0.73452817  0.62996340  0.00554504  1
  Li  Li26  1  0.12996340  0.00554504  0.23452817  1
  Li  Li27  1  0.12996340  0.23452817  0.00554504  1
  Li  Li28  1  0.73452817  0.62996340  0.62996340  1
  Li  Li29  1  0.50554504  0.62996340  0.62996340  1
  Li  Li30  1  0.34839389  0.21720204  0.21720204  1
  Li  Li31  1  0.71720204  0.84839389  0.21720204  1
  Li  Li32  1  0.71720204  0.21720204  0.84839389  1
  Li  Li33  1  0.71720204  0.21720204  0.21720204  1
  Li  Li34  1  0.28279796  0.15160611  0.78279796  1
  Li  Li35  1  0.65160611  0.78279796  0.78279796  1
  Li  Li36  1  0.28279796  0.78279796  0.15160611  1
  Li  Li37  1  0.28279796  0.78279796  0.78279796  1
  Li  Li38  1  0.62500000  0.12500000  0.12500000  1
  Li  Li39  1  0.37500000  0.87500000  0.87500000  1
