# generated using pymatgen
data_H2He5Li
_symmetry_space_group_name_H-M   'P 1'
_cell_length_a   8.17727490
_cell_length_b   8.17727490
_cell_length_c   5.38684617
_cell_angle_alpha   90.00000000
_cell_angle_beta   90.00000000
_cell_angle_gamma   140.24832513
_symmetry_Int_Tables_number   1
_chemical_formula_structural   H2He5Li
_chemical_formula_sum   'H4 He10 Li2'
_cell_volume   230.33829905
_cell_formula_units_Z   2
loop_
 _symmetry_equiv_pos_site_id
 _symmetry_equiv_pos_as_xyz
  1  'x, y, z'
loop_
 _atom_site_type_symbol
 _atom_site_label
 _atom_site_symmetry_multiplicity
 _atom_site_fract_x
 _atom_site_fract_y
 _atom_site_fract_z
 _atom_site_occupancy
  H  H0  1  0.05282344  0.38414842  0.74205633  1
  H  H1  1  0.94717656  0.61585158  0.24205633  1
  H  H2  1  0.61585158  0.94717656  0.24205633  1
  H  H3  1  0.38414842  0.05282344  0.74205633  1
  He  He4  1  0.52804257  0.52804257  0.53147856  1
  He  He5  1  0.47195743  0.47195743  0.03147856  1
  He  He6  1  0.08546965  0.26701337  0.32436837  1
  He  He7  1  0.91453035  0.73298663  0.82436837  1
  He  He8  1  0.73298663  0.91453035  0.82436837  1
  He  He9  1  0.26701337  0.08546965  0.32436837  1
  He  He10  1  0.24122807  0.73974735  0.51490622  1
  He  He11  1  0.75877193  0.26025265  0.01490622  1
  He  He12  1  0.26025265  0.75877193  0.01490622  1
  He  He13  1  0.73974735  0.24122807  0.51490622  1
  Li  Li14  1  0.67644408  0.67644408  0.80115960  1
  Li  Li15  1  0.32355592  0.32355592  0.30115960  1
