# generated using pymatgen
data_HHe4
_symmetry_space_group_name_H-M   'P 1'
_cell_length_a   7.00799539
_cell_length_b   7.00799539
_cell_length_c   7.00799539
_cell_angle_alpha   90.00000000
_cell_angle_beta   90.00000000
_cell_angle_gamma   90.00000000
_symmetry_Int_Tables_number   1
_chemical_formula_structural   HHe4
_chemical_formula_sum   'H4 He16'
_cell_volume   344.17666495
_cell_formula_units_Z   4
loop_
 _symmetry_equiv_pos_site_id
 _symmetry_equiv_pos_as_xyz
  1  'x, y, z'
loop_
 _atom_site_type_symbol
 _atom_site_label
 _atom_site_symmetry_multiplicity
 _atom_site_fract_x
 _atom_site_fract_y
 _atom_site_fract_z
 _atom_site_occupancy
  H  H0  1  0.68679513  0.68679513  0.68679513  1
  H  H1  1  0.81320487  0.31320487  0.18679513  1
  H  H2  1  0.31320487  0.18679513  0.81320487  1
  H  H3  1  0.18679513  0.81320487  0.31320487  1
  He  He4  1  0.06648770  0.06648770  0.06648770  1
  He  He5  1  0.43351230  0.93351230  0.56648770  1
  He  He6  1  0.93351230  0.56648770  0.43351230  1
  He  He7  1  0.56648770  0.43351230  0.93351230  1
  He  He8  1  0.13599510  0.19844241  0.46434759  1
  He  He9  1  0.36400490  0.80155759  0.96434759  1
  He  He10  1  0.86400490  0.69844241  0.03565241  1
  He  He11  1  0.63599510  0.30155759  0.53565241  1
  He  He12  1  0.46434759  0.13599510  0.19844241  1
  He  He13  1  0.96434759  0.36400490  0.80155759  1
  He  He14  1  0.03565241  0.86400490  0.69844241  1
  He  He15  1  0.53565241  0.63599510  0.30155759  1
  He  He16  1  0.19844241  0.46434759  0.13599510  1
  He  He17  1  0.80155759  0.96434759  0.36400490  1
  He  He18  1  0.69844241  0.03565241  0.86400490  1
  He  He19  1  0.30155759  0.53565241  0.63599510  1
