# generated using pymatgen
data_H2He
_symmetry_space_group_name_H-M   'P 1'
_cell_length_a   6.87567585
_cell_length_b   6.97721394
_cell_length_c   7.03917045
_cell_angle_alpha   64.06815825
_cell_angle_beta   90.00000000
_cell_angle_gamma   90.00000000
_symmetry_Int_Tables_number   1
_chemical_formula_structural   H2He
_chemical_formula_sum   'H8 He4'
_cell_volume   303.69014501
_cell_formula_units_Z   4
loop_
 _symmetry_equiv_pos_site_id
 _symmetry_equiv_pos_as_xyz
  1  'x, y, z'
loop_
 _atom_site_type_symbol
 _atom_site_label
 _atom_site_symmetry_multiplicity
 _atom_site_fract_x
 _atom_site_fract_y
 _atom_site_fract_z
 _atom_site_occupancy
  H  H0  1  0.35743694  0.65333348  0.16804934  1
  H  H1  1  0.85743694  0.34666652  0.33195066  1
  H  H2  1  0.64256306  0.34666652  0.83195066  1
  H  H3  1  0.14256306  0.65333348  0.66804934  1
  H  H4  1  0.63812406  0.85393481  0.37212268  1
  H  H5  1  0.13812406  0.14606519  0.12787732  1
  H  H6  1  0.36187594  0.14606519  0.62787732  1
  H  H7  1  0.86187594  0.85393481  0.87212268  1
  He  He8  1  0.99775488  0.73121896  0.28275084  1
  He  He9  1  0.49775488  0.26878104  0.21724916  1
  He  He10  1  0.00224512  0.26878104  0.71724916  1
  He  He11  1  0.50224512  0.73121896  0.78275084  1
