# generated using pymatgen
data_HHeLi5
_symmetry_space_group_name_H-M   'P 1'
_cell_length_a   6.40035682
_cell_length_b   8.79035198
_cell_length_c   11.21419342
_cell_angle_alpha   88.34471774
_cell_angle_beta   90.00000000
_cell_angle_gamma   90.00000000
_symmetry_Int_Tables_number   1
_chemical_formula_structural   HHeLi5
_chemical_formula_sum   'H8 He8 Li40'
_cell_volume   630.66282135
_cell_formula_units_Z   8
loop_
 _symmetry_equiv_pos_site_id
 _symmetry_equiv_pos_as_xyz
  1  'x, y, z'
loop_
 _atom_site_type_symbol
 _atom_site_label
 _atom_site_symmetry_multiplicity
 _atom_site_fract_x
 _atom_site_fract_y
 _atom_site_fract_z
 _atom_site_occupancy
  H  H0  1  0.24776097  0.47868844  0.33468689  1
  H  H1  1  0.74776097  0.52131156  0.16531311  1
  H  H2  1  0.75223903  0.52131156  0.66531311  1
  H  H3  1  0.25223903  0.47868844  0.83468689  1
  H  H4  1  0.24718051  0.87017215  0.34153567  1
  H  H5  1  0.74718051  0.12982785  0.15846433  1
  H  H6  1  0.75281949  0.12982785  0.65846433  1
  H  H7  1  0.25281949  0.87017215  0.84153567  1
  He  He8  1  0.24202139  0.70727710  0.10017842  1
  He  He9  1  0.74202139  0.29272290  0.39982158  1
  He  He10  1  0.75797861  0.29272290  0.89982158  1
  He  He11  1  0.25797861  0.70727710  0.60017842  1
  He  He12  1  0.24543529  0.18603044  0.20376232  1
  He  He13  1  0.74543529  0.81396956  0.29623768  1
  He  He14  1  0.75456471  0.81396956  0.79623768  1
  He  He15  1  0.25456471  0.18603044  0.70376232  1
  Li  Li16  1  0.24318252  0.66692269  0.29327167  1
  Li  Li17  1  0.74318252  0.33307731  0.20672833  1
  Li  Li18  1  0.75681748  0.33307731  0.70672833  1
  Li  Li19  1  0.25681748  0.66692269  0.79327167  1
  Li  Li20  1  0.23773492  0.45432063  0.17895641  1
  Li  Li21  1  0.73773492  0.54567937  0.32104359  1
  Li  Li22  1  0.76226508  0.54567937  0.82104359  1
  Li  Li23  1  0.26226508  0.45432063  0.67895641  1
  Li  Li24  1  0.42273497  0.87955182  0.22206776  1
  Li  Li25  1  0.92273497  0.12044818  0.27793224  1
  Li  Li26  1  0.57726503  0.12044818  0.77793224  1
  Li  Li27  1  0.07726503  0.87955182  0.72206776  1
  Li  Li28  1  0.44826986  0.81086232  0.43636595  1
  Li  Li29  1  0.94826986  0.18913768  0.06363405  1
  Li  Li30  1  0.55173014  0.18913768  0.56363405  1
  Li  Li31  1  0.05173014  0.81086232  0.93636595  1
  Li  Li32  1  0.24897099  0.05380226  0.37307020  1
  Li  Li33  1  0.74897099  0.94619774  0.12692980  1
  Li  Li34  1  0.75102901  0.94619774  0.62692980  1
  Li  Li35  1  0.25102901  0.05380226  0.87307020  1
  Li  Li36  1  0.73369440  0.47838645  0.52506262  1
  Li  Li37  1  0.23369440  0.52161355  0.97493738  1
  Li  Li38  1  0.26630560  0.52161355  0.47493738  1
  Li  Li39  1  0.76630560  0.47838645  0.02506262  1
  Li  Li40  1  0.05726822  0.35161853  0.34268467  1
  Li  Li41  1  0.55726822  0.64838147  0.15731533  1
  Li  Li42  1  0.94273178  0.64838147  0.65731533  1
  Li  Li43  1  0.44273178  0.35161853  0.84268467  1
  Li  Li44  1  0.05209965  0.80956592  0.43906621  1
  Li  Li45  1  0.55209965  0.19043408  0.06093379  1
  Li  Li46  1  0.94790035  0.19043408  0.56093379  1
  Li  Li47  1  0.44790035  0.80956592  0.93906621  1
  Li  Li48  1  0.06939514  0.88338099  0.22387758  1
  Li  Li49  1  0.56939514  0.11661901  0.27612242  1
  Li  Li50  1  0.93060486  0.11661901  0.77612242  1
  Li  Li51  1  0.43060486  0.88338099  0.72387758  1
  Li  Li52  1  0.57313840  0.65826554  0.66540372  1
  Li  Li53  1  0.07313840  0.34173446  0.83459628  1
  Li  Li54  1  0.42686160  0.34173446  0.33459628  1
  Li  Li55  1  0.92686160  0.65826554  0.16540372  1
