# generated using pymatgen
data_H3He4
_symmetry_space_group_name_H-M   'P 1'
_cell_length_a   5.67186460
_cell_length_b   5.67186460
_cell_length_c   14.22713891
_cell_angle_alpha   90.00000000
_cell_angle_beta   90.00000000
_cell_angle_gamma   138.34279269
_symmetry_Int_Tables_number   1
_chemical_formula_structural   H3He4
_chemical_formula_sum   'H6 He8'
_cell_volume   304.21246731
_cell_formula_units_Z   2
loop_
 _symmetry_equiv_pos_site_id
 _symmetry_equiv_pos_as_xyz
  1  'x, y, z'
loop_
 _atom_site_type_symbol
 _atom_site_label
 _atom_site_symmetry_multiplicity
 _atom_site_fract_x
 _atom_site_fract_y
 _atom_site_fract_z
 _atom_site_occupancy
  H  H0  1  0.33243644  0.66756356  0.90358368  1
  H  H1  1  0.66756356  0.33243644  0.40358368  1
  H  H2  1  0.33243644  0.66756356  0.59641632  1
  H  H3  1  0.66756356  0.33243644  0.09641632  1
  H  H4  1  0.05010916  0.94989084  0.75000000  1
  H  H5  1  0.94989084  0.05010916  0.25000000  1
  He  He6  1  0.37782905  0.62217095  0.10898759  1
  He  He7  1  0.62217095  0.37782905  0.60898759  1
  He  He8  1  0.37782905  0.62217095  0.39101241  1
  He  He9  1  0.62217095  0.37782905  0.89101241  1
  He  He10  1  0.77948081  0.22051919  0.75000000  1
  He  He11  1  0.22051919  0.77948081  0.25000000  1
  He  He12  1  -0.00000000  0.00000000  0.00000000  1
  He  He13  1  0.00000000  -0.00000000  0.50000000  1
