# generated using pymatgen
data_H7He6Li16
_symmetry_space_group_name_H-M   'P 1'
_cell_length_a   8.04877612
_cell_length_b   8.04877612
_cell_length_c   8.04877612
_cell_angle_alpha   60.00000000
_cell_angle_beta   60.00000000
_cell_angle_gamma   60.00000000
_symmetry_Int_Tables_number   1
_chemical_formula_structural   H7He6Li16
_chemical_formula_sum   'H7 He6 Li16'
_cell_volume   368.70119413
_cell_formula_units_Z   1
loop_
 _symmetry_equiv_pos_site_id
 _symmetry_equiv_pos_as_xyz
  1  'x, y, z'
loop_
 _atom_site_type_symbol
 _atom_site_label
 _atom_site_symmetry_multiplicity
 _atom_site_fract_x
 _atom_site_fract_y
 _atom_site_fract_z
 _atom_site_occupancy
  H  H0  1  0.50000000  0.50000000  0.50000000  1
  H  H1  1  -0.00000000  0.50000000  0.50000000  1
  H  H2  1  0.50000000  -0.00000000  -0.00000000  1
  H  H3  1  -0.00000000  0.50000000  -0.00000000  1
  H  H4  1  0.50000000  -0.00000000  0.50000000  1
  H  H5  1  0.50000000  0.50000000  -0.00000000  1
  H  H6  1  -0.00000000  0.00000000  0.50000000  1
  He  He7  1  0.19622250  0.80377750  0.80377750  1
  He  He8  1  0.80377750  0.19622250  0.19622250  1
  He  He9  1  0.19622250  0.80377750  0.19622250  1
  He  He10  1  0.80377750  0.19622250  0.80377750  1
  He  He11  1  0.80377750  0.80377750  0.19622250  1
  He  He12  1  0.19622250  0.19622250  0.80377750  1
  Li  Li13  1  0.16586562  0.50240315  0.16586562  1
  Li  Li14  1  0.50240315  0.16586562  0.16586562  1
  Li  Li15  1  0.16586562  0.16586562  0.16586562  1
  Li  Li16  1  0.16586562  0.16586562  0.50240315  1
  Li  Li17  1  0.49759685  0.83413438  0.83413438  1
  Li  Li18  1  0.83413438  0.49759685  0.83413438  1
  Li  Li19  1  0.83413438  0.83413438  0.83413438  1
  Li  Li20  1  0.83413438  0.83413438  0.49759685  1
  Li  Li21  1  0.38211389  0.85365832  0.38211389  1
  Li  Li22  1  0.85365832  0.38211389  0.38211389  1
  Li  Li23  1  0.38211389  0.38211389  0.38211389  1
  Li  Li24  1  0.38211389  0.38211389  0.85365832  1
  Li  Li25  1  0.14634168  0.61788611  0.61788611  1
  Li  Li26  1  0.61788611  0.14634168  0.61788611  1
  Li  Li27  1  0.61788611  0.61788611  0.61788611  1
  Li  Li28  1  0.61788611  0.61788611  0.14634168  1
