# generated using pymatgen
data_H18He3Li2
_symmetry_space_group_name_H-M   'P 1'
_cell_length_a   10.41987258
_cell_length_b   10.41987258
_cell_length_c   10.41987258
_cell_angle_alpha   60.00000000
_cell_angle_beta   60.00000000
_cell_angle_gamma   60.00000000
_symmetry_Int_Tables_number   1
_chemical_formula_structural   H18He3Li2
_chemical_formula_sum   'H36 He6 Li4'
_cell_volume   799.96728495
_cell_formula_units_Z   2
loop_
 _symmetry_equiv_pos_site_id
 _symmetry_equiv_pos_as_xyz
  1  'x, y, z'
loop_
 _atom_site_type_symbol
 _atom_site_label
 _atom_site_symmetry_multiplicity
 _atom_site_fract_x
 _atom_site_fract_y
 _atom_site_fract_z
 _atom_site_occupancy
  H  H0  1  0.76282600  0.26282600  0.48717400  1
  H  H1  1  0.48717400  0.98717400  0.76282600  1
  H  H2  1  0.48717400  0.26282600  0.76282600  1
  H  H3  1  0.76282600  0.98717400  0.48717400  1
  H  H4  1  0.48717400  0.26282600  0.48717400  1
  H  H5  1  0.76282600  0.98717400  0.76282600  1
  H  H6  1  0.23717400  0.01282600  0.51282600  1
  H  H7  1  0.51282600  0.73717400  0.23717400  1
  H  H8  1  0.51282600  0.01282600  0.23717400  1
  H  H9  1  0.23717400  0.73717400  0.51282600  1
  H  H10  1  0.51282600  0.73717400  0.51282600  1
  H  H11  1  0.23717400  0.01282600  0.23717400  1
  H  H12  1  0.32397167  0.55794558  0.32397167  1
  H  H13  1  0.32397167  0.29411108  0.32397167  1
  H  H14  1  0.79411108  0.82397167  0.05794558  1
  H  H15  1  0.05794558  0.82397167  0.79411108  1
  H  H16  1  0.79411108  0.55794558  0.32397167  1
  H  H17  1  0.05794558  0.29411108  0.32397167  1
  H  H18  1  0.32397167  0.82397167  0.79411108  1
  H  H19  1  0.32397167  0.82397167  0.05794558  1
  H  H20  1  0.32397167  0.55794558  0.79411108  1
  H  H21  1  0.32397167  0.29411108  0.05794558  1
  H  H22  1  0.05794558  0.82397167  0.32397167  1
  H  H23  1  0.79411108  0.82397167  0.32397167  1
  H  H24  1  0.67602833  0.70588892  0.67602833  1
  H  H25  1  0.67602833  0.44205442  0.67602833  1
  H  H26  1  0.20588892  0.17602833  0.94205442  1
  H  H27  1  0.94205442  0.17602833  0.20588892  1
  H  H28  1  0.20588892  0.17602833  0.67602833  1
  H  H29  1  0.94205442  0.17602833  0.67602833  1
  H  H30  1  0.67602833  0.44205442  0.20588892  1
  H  H31  1  0.67602833  0.70588892  0.94205442  1
  H  H32  1  0.67602833  0.17602833  0.20588892  1
  H  H33  1  0.67602833  0.17602833  0.94205442  1
  H  H34  1  0.94205442  0.70588892  0.67602833  1
  H  H35  1  0.20588892  0.44205442  0.67602833  1
  He  He36  1  0.00000000  0.00000000  0.00000000  1
  He  He37  1  0.00000000  0.50000000  0.00000000  1
  He  He38  1  0.00000000  0.50000000  0.50000000  1
  He  He39  1  0.50000000  0.50000000  0.00000000  1
  He  He40  1  0.12500000  0.62500000  0.12500000  1
  He  He41  1  0.87500000  0.37500000  0.87500000  1
  Li  Li42  1  0.50000000  0.50000000  0.50000000  1
  Li  Li43  1  0.50000000  0.00000000  0.50000000  1
  Li  Li44  1  0.50000000  0.00000000  0.00000000  1
  Li  Li45  1  0.00000000  0.00000000  0.50000000  1
