# generated using pymatgen
data_H3HeLi
_symmetry_space_group_name_H-M   'P 1'
_cell_length_a   5.49837294
_cell_length_b   5.49837294
_cell_length_c   5.49837294
_cell_angle_alpha   88.93332813
_cell_angle_beta   88.93332813
_cell_angle_gamma   88.93332813
_symmetry_Int_Tables_number   1
_chemical_formula_structural   H3HeLi
_chemical_formula_sum   'H3 He1 Li1'
_cell_volume   166.14202900
_cell_formula_units_Z   1
loop_
 _symmetry_equiv_pos_site_id
 _symmetry_equiv_pos_as_xyz
  1  'x, y, z'
loop_
 _atom_site_type_symbol
 _atom_site_label
 _atom_site_symmetry_multiplicity
 _atom_site_fract_x
 _atom_site_fract_y
 _atom_site_fract_z
 _atom_site_occupancy
  H  H0  1  0.51698826  0.51698826  0.05493287  1
  H  H1  1  0.05493287  0.51698826  0.51698826  1
  H  H2  1  0.51698826  0.05493287  0.51698826  1
  He  He3  1  0.00190406  0.00190406  0.00190406  1
  Li  Li4  1  0.49418656  0.49418656  0.49418656  1
