# generated using pymatgen
data_HHe
_symmetry_space_group_name_H-M   'P 1'
_cell_length_a   6.44855478
_cell_length_b   6.44855478
_cell_length_c   6.44855478
_cell_angle_alpha   137.19072174
_cell_angle_beta   137.19072174
_cell_angle_gamma   62.14473460
_symmetry_Int_Tables_number   1
_chemical_formula_structural   HHe
_chemical_formula_sum   'H2 He2'
_cell_volume   122.36426329
_cell_formula_units_Z   2
loop_
 _symmetry_equiv_pos_site_id
 _symmetry_equiv_pos_as_xyz
  1  'x, y, z'
loop_
 _atom_site_type_symbol
 _atom_site_label
 _atom_site_symmetry_multiplicity
 _atom_site_fract_x
 _atom_site_fract_y
 _atom_site_fract_z
 _atom_site_occupancy
  H  H0  1  0.65983782  0.65983782  0.00000000  1
  H  H1  1  0.34016218  0.34016218  -0.00000000  1
  He  He2  1  0.88175176  0.88175176  -0.00000000  1
  He  He3  1  0.11824824  0.11824824  0.00000000  1
