# generated using pymatgen
data_H3He4
_symmetry_space_group_name_H-M   'P 1'
_cell_length_a   6.05747865
_cell_length_b   6.05747865
_cell_length_c   6.05747865
_cell_angle_alpha   60.00000000
_cell_angle_beta   60.00000000
_cell_angle_gamma   60.00000000
_symmetry_Int_Tables_number   1
_chemical_formula_structural   H3He4
_chemical_formula_sum   'H6 He8'
_cell_volume   157.16675198
_cell_formula_units_Z   2
loop_
 _symmetry_equiv_pos_site_id
 _symmetry_equiv_pos_as_xyz
  1  'x, y, z'
loop_
 _atom_site_type_symbol
 _atom_site_label
 _atom_site_symmetry_multiplicity
 _atom_site_fract_x
 _atom_site_fract_y
 _atom_site_fract_z
 _atom_site_occupancy
  H  H0  1  0.00000000  -0.00000000  -0.00000000  1
  H  H1  1  0.25000000  0.25000000  0.25000000  1
  H  H2  1  0.62500000  0.62500000  0.12500000  1
  H  H3  1  0.62500000  0.62500000  0.62500000  1
  H  H4  1  0.12500000  0.62500000  0.62500000  1
  H  H5  1  0.62500000  0.12500000  0.62500000  1
  He  He6  1  0.38066663  0.38066663  0.85800012  1
  He  He7  1  0.38066663  0.38066663  0.38066663  1
  He  He8  1  0.85800012  0.38066663  0.38066663  1
  He  He9  1  0.38066663  0.85800012  0.38066663  1
  He  He10  1  0.86933337  0.86933337  0.86933337  1
  He  He11  1  0.86933337  0.86933337  0.39199988  1
  He  He12  1  0.39199988  0.86933337  0.86933337  1
  He  He13  1  0.86933337  0.39199988  0.86933337  1
