# generated using pymatgen
data_HHe2Li10Be
_symmetry_space_group_name_H-M   'P 1'
_cell_length_a   7.59480125
_cell_length_b   9.62173156
_cell_length_c   12.27243348
_cell_angle_alpha   90.00000000
_cell_angle_beta   90.00000000
_cell_angle_gamma   90.00000000
_symmetry_Int_Tables_number   1
_chemical_formula_structural   HHe2Li10Be
_chemical_formula_sum   'H4 He8 Li40 Be4'
_cell_volume   896.80978112
_cell_formula_units_Z   4
loop_
 _symmetry_equiv_pos_site_id
 _symmetry_equiv_pos_as_xyz
  1  'x, y, z'
loop_
 _atom_site_type_symbol
 _atom_site_label
 _atom_site_symmetry_multiplicity
 _atom_site_fract_x
 _atom_site_fract_y
 _atom_site_fract_z
 _atom_site_occupancy
  H  H0  1  0.80215280  0.55489106  0.30264899  1
  H  H1  1  0.69784720  0.44510894  0.80264899  1
  H  H2  1  0.19784720  0.05489106  0.19735101  1
  H  H3  1  0.30215280  0.94510894  0.69735101  1
  He  He4  1  0.27789744  0.76422375  0.42242927  1
  He  He5  1  0.22210256  0.23577625  0.92242927  1
  He  He6  1  0.72210256  0.26422375  0.07757073  1
  He  He7  1  0.77789744  0.73577625  0.57757073  1
  He  He8  1  0.14882758  0.76154979  0.96030560  1
  He  He9  1  0.35117242  0.23845021  0.46030560  1
  He  He10  1  0.85117242  0.26154979  0.53969440  1
  He  He11  1  0.64882758  0.73845021  0.03969440  1
  Li  Li12  1  0.75589817  0.48891279  0.42290165  1
  Li  Li13  1  0.74410183  0.51108721  0.92290165  1
  Li  Li14  1  0.24410183  0.98891279  0.07709835  1
  Li  Li15  1  0.25589817  0.01108721  0.57709835  1
  Li  Li16  1  0.98460316  0.47883761  0.25297912  1
  Li  Li17  1  0.51539684  0.52116239  0.75297912  1
  Li  Li18  1  0.01539684  0.97883761  0.24702088  1
  Li  Li19  1  0.48460316  0.02116239  0.74702088  1
  Li  Li20  1  0.92902163  0.84771775  0.95329161  1
  Li  Li21  1  0.57097837  0.15228225  0.45329161  1
  Li  Li22  1  0.07097837  0.34771775  0.54670839  1
  Li  Li23  1  0.42902163  0.65228225  0.04670839  1
  Li  Li24  1  0.27355335  0.69713192  0.28445158  1
  Li  Li25  1  0.22644665  0.30286808  0.78445158  1
  Li  Li26  1  0.72644665  0.19713192  0.21554842  1
  Li  Li27  1  0.77355335  0.80286808  0.71554842  1
  Li  Li28  1  0.12291228  0.63868154  0.84638907  1
  Li  Li29  1  0.37708772  0.36131846  0.34638907  1
  Li  Li30  1  0.87708772  0.13868154  0.65361093  1
  Li  Li31  1  0.62291228  0.86131846  0.15361093  1
  Li  Li32  1  0.08027638  0.65189050  0.07465006  1
  Li  Li33  1  0.41972362  0.34810950  0.57465006  1
  Li  Li34  1  0.91972362  0.15189050  0.42534994  1
  Li  Li35  1  0.58027638  0.84810950  0.92534994  1
  Li  Li36  1  0.50724306  0.82258620  0.42924561  1
  Li  Li37  1  0.99275694  0.17741380  0.92924561  1
  Li  Li38  1  0.49275694  0.32258620  0.07075439  1
  Li  Li39  1  0.00724306  0.67741380  0.57075439  1
  Li  Li40  1  0.32070950  0.60199516  0.49372087  1
  Li  Li41  1  0.17929050  0.39800484  0.99372087  1
  Li  Li42  1  0.67929050  0.10199516  0.00627913  1
  Li  Li43  1  0.82070950  0.89800484  0.50627913  1
  Li  Li44  1  0.63288155  0.53201498  0.21547036  1
  Li  Li45  1  0.86711845  0.46798502  0.71547036  1
  Li  Li46  1  0.36711845  0.03201498  0.28452964  1
  Li  Li47  1  0.13288155  0.96798502  0.78452964  1
  Li  Li48  1  0.83666223  0.72464916  0.32008179  1
  Li  Li49  1  0.66333777  0.27535084  0.82008179  1
  Li  Li50  1  0.16333777  0.22464916  0.17991821  1
  Li  Li51  1  0.33666223  0.77535084  0.67991821  1
  Be  Be52  1  0.28823314  0.47919360  0.17711603  1
  Be  Be53  1  0.21176686  0.52080640  0.67711603  1
  Be  Be54  1  0.71176686  0.97919360  0.32288397  1
  Be  Be55  1  0.78823314  0.02080640  0.82288397  1
