# generated using pymatgen
data_H2He7
_symmetry_space_group_name_H-M   'P 1'
_cell_length_a   11.90755985
_cell_length_b   6.70196866
_cell_length_c   13.22655234
_cell_angle_alpha   85.88889644
_cell_angle_beta   90.00000000
_cell_angle_gamma   90.00000000
_symmetry_Int_Tables_number   1
_chemical_formula_structural   H2He7
_chemical_formula_sum   'H8 He28'
_cell_volume   1052.81702948
_cell_formula_units_Z   4
loop_
 _symmetry_equiv_pos_site_id
 _symmetry_equiv_pos_as_xyz
  1  'x, y, z'
loop_
 _atom_site_type_symbol
 _atom_site_label
 _atom_site_symmetry_multiplicity
 _atom_site_fract_x
 _atom_site_fract_y
 _atom_site_fract_z
 _atom_site_occupancy
  H  H0  1  0.68774163  0.98732575  0.09830447  1
  H  H1  1  0.18774163  0.01267425  0.40169553  1
  H  H2  1  0.31225837  0.01267425  0.90169553  1
  H  H3  1  0.81225837  0.98732575  0.59830447  1
  H  H4  1  0.29513724  0.66749838  0.32047897  1
  H  H5  1  0.79513724  0.33250162  0.17952103  1
  H  H6  1  0.70486276  0.33250162  0.67952103  1
  H  H7  1  0.20486276  0.66749838  0.82047897  1
  He  He8  1  0.77737713  0.93221682  0.44524003  1
  He  He9  1  0.27737713  0.06778318  0.05475997  1
  He  He10  1  0.22262287  0.06778318  0.55475997  1
  He  He11  1  0.72262287  0.93221682  0.94524003  1
  He  He12  1  0.16853191  0.84552411  0.10760828  1
  He  He13  1  0.66853191  0.15447589  0.39239172  1
  He  He14  1  0.83146809  0.15447589  0.89239172  1
  He  He15  1  0.33146809  0.84552411  0.60760828  1
  He  He16  1  0.26498822  0.61067157  0.16676859  1
  He  He17  1  0.76498822  0.38932843  0.33323141  1
  He  He18  1  0.73501178  0.38932843  0.83323141  1
  He  He19  1  0.23501178  0.61067157  0.66676859  1
  He  He20  1  0.34413829  0.97246077  0.32580705  1
  He  He21  1  0.84413829  0.02753923  0.17419295  1
  He  He22  1  0.65586171  0.02753923  0.67419295  1
  He  He23  1  0.15586171  0.97246077  0.82580705  1
  He  He24  1  0.13763998  0.70962347  0.39436822  1
  He  He25  1  0.63763998  0.29037653  0.10563178  1
  He  He26  1  0.86236002  0.29037653  0.60563178  1
  He  He27  1  0.36236002  0.70962347  0.89436822  1
  He  He28  1  0.58382004  0.78117039  0.14782956  1
  He  He29  1  0.08382004  0.21882961  0.35217044  1
  He  He30  1  0.41617996  0.21882961  0.85217044  1
  He  He31  1  0.91617996  0.78117039  0.64782956  1
  He  He32  1  0.39624217  0.46144736  0.37456179  1
  He  He33  1  0.89624217  0.53855264  0.12543821  1
  He  He34  1  0.60375783  0.53855264  0.62543821  1
  He  He35  1  0.10375783  0.46144736  0.87456179  1
