# generated using pymatgen
data_H3HeLi
_symmetry_space_group_name_H-M   'P 1'
_cell_length_a   7.67023218
_cell_length_b   7.67025116
_cell_length_c   6.75341576
_cell_angle_alpha   90.00000000
_cell_angle_beta   90.00000000
_cell_angle_gamma   119.99991815
_symmetry_Int_Tables_number   1
_chemical_formula_structural   H3HeLi
_chemical_formula_sum   'H6 He2 Li2'
_cell_volume   344.09041273
_cell_formula_units_Z   2
loop_
 _symmetry_equiv_pos_site_id
 _symmetry_equiv_pos_as_xyz
  1  'x, y, z'
loop_
 _atom_site_type_symbol
 _atom_site_label
 _atom_site_symmetry_multiplicity
 _atom_site_fract_x
 _atom_site_fract_y
 _atom_site_fract_z
 _atom_site_occupancy
  H  H0  1  0.84046555  0.68093110  0.25000000  1
  H  H1  1  0.31906161  0.15952704  0.25000000  1
  H  H2  1  0.84046544  0.15952704  0.25000000  1
  H  H3  1  0.15953445  0.31906890  0.75000000  1
  H  H4  1  0.68093839  0.84047296  0.75000000  1
  H  H5  1  0.15953456  0.84047296  0.75000000  1
  He  He6  1  0.00000000  0.00000000  0.00000000  1
  He  He7  1  0.00000000  0.00000000  0.50000000  1
  Li  Li8  1  0.66668319  0.33336638  0.75000000  1
  Li  Li9  1  0.33331681  0.66663362  0.25000000  1
