# generated using pymatgen
data_H3He2Li8
_symmetry_space_group_name_H-M   'P 1'
_cell_length_a   7.97754111
_cell_length_b   7.97754111
_cell_length_c   7.97754111
_cell_angle_alpha   42.93760617
_cell_angle_beta   42.93760617
_cell_angle_gamma   42.93760617
_symmetry_Int_Tables_number   1
_chemical_formula_structural   H3He2Li8
_chemical_formula_sum   'H3 He2 Li8'
_cell_volume   213.51269203
_cell_formula_units_Z   1
loop_
 _symmetry_equiv_pos_site_id
 _symmetry_equiv_pos_as_xyz
  1  'x, y, z'
loop_
 _atom_site_type_symbol
 _atom_site_label
 _atom_site_symmetry_multiplicity
 _atom_site_fract_x
 _atom_site_fract_y
 _atom_site_fract_z
 _atom_site_occupancy
  H  H0  1  0.00000000  -0.00000000  0.00000000  1
  H  H1  1  0.20617471  0.20617471  0.20617471  1
  H  H2  1  0.79382529  0.79382529  0.79382529  1
  He  He3  1  0.40726630  0.40726630  0.40726630  1
  He  He4  1  0.59273370  0.59273370  0.59273370  1
  Li  Li5  1  0.72656496  0.24275943  0.72656496  1
  Li  Li6  1  0.72656496  0.72656496  0.24275943  1
  Li  Li7  1  0.24275943  0.72656496  0.72656496  1
  Li  Li8  1  0.27343504  0.75724057  0.27343504  1
  Li  Li9  1  0.75724057  0.27343504  0.27343504  1
  Li  Li10  1  0.27343504  0.27343504  0.75724057  1
  Li  Li11  1  0.32835331  0.32835331  0.32835331  1
  Li  Li12  1  0.67164669  0.67164669  0.67164669  1
