# generated using pymatgen
data_H3He(LiBe)3
_symmetry_space_group_name_H-M   'P 1'
_cell_length_a   7.13881760
_cell_length_b   12.18821294
_cell_length_c   12.59265178
_cell_angle_alpha   90.00000000
_cell_angle_beta   90.00000000
_cell_angle_gamma   90.00000000
_symmetry_Int_Tables_number   1
_chemical_formula_structural   H3He(LiBe)3
_chemical_formula_sum   'H12 He4 Li12 Be12'
_cell_volume   1095.67944177
_cell_formula_units_Z   4
loop_
 _symmetry_equiv_pos_site_id
 _symmetry_equiv_pos_as_xyz
  1  'x, y, z'
loop_
 _atom_site_type_symbol
 _atom_site_label
 _atom_site_symmetry_multiplicity
 _atom_site_fract_x
 _atom_site_fract_y
 _atom_site_fract_z
 _atom_site_occupancy
  H  H0  1  0.33188158  0.56686280  0.38579057  1
  H  H1  1  0.16811842  0.43313720  0.88579057  1
  H  H2  1  0.66811842  0.06686280  0.61420943  1
  H  H3  1  0.83188158  0.93313720  0.11420943  1
  H  H4  1  0.66811842  0.43313720  0.61420943  1
  H  H5  1  0.83188158  0.56686280  0.11420943  1
  H  H6  1  0.33188158  0.93313720  0.38579057  1
  H  H7  1  0.16811842  0.06686280  0.88579057  1
  H  H8  1  0.15058443  0.25000000  0.53417740  1
  H  H9  1  0.34941557  0.75000000  0.03417740  1
  H  H10  1  0.84941557  0.75000000  0.46582260  1
  H  H11  1  0.65058443  0.25000000  0.96582260  1
  He  He12  1  0.09744864  0.25000000  0.11688492  1
  He  He13  1  0.40255136  0.75000000  0.61688492  1
  He  He14  1  0.90255136  0.75000000  0.88311508  1
  He  He15  1  0.59744864  0.25000000  0.38311508  1
  Li  Li16  1  0.58408707  0.75000000  0.26716037  1
  Li  Li17  1  0.91591293  0.25000000  0.76716037  1
  Li  Li18  1  0.41591293  0.25000000  0.73283963  1
  Li  Li19  1  0.08408707  0.75000000  0.23283963  1
  Li  Li20  1  0.39517624  0.49662116  0.13794293  1
  Li  Li21  1  0.10482376  0.50337884  0.63794293  1
  Li  Li22  1  0.60482376  0.99662116  0.86205707  1
  Li  Li23  1  0.89517624  0.00337884  0.36205707  1
  Li  Li24  1  0.60482376  0.50337884  0.86205707  1
  Li  Li25  1  0.89517624  0.49662116  0.36205707  1
  Li  Li26  1  0.39517624  0.00337884  0.13794293  1
  Li  Li27  1  0.10482376  0.99662116  0.63794293  1
  Be  Be28  1  0.42891360  0.37312718  0.45245571  1
  Be  Be29  1  0.07108640  0.62687282  0.95245571  1
  Be  Be30  1  0.57108640  0.87312718  0.54754429  1
  Be  Be31  1  0.92891360  0.12687282  0.04754429  1
  Be  Be32  1  0.57108640  0.62687282  0.54754429  1
  Be  Be33  1  0.92891360  0.37312718  0.04754429  1
  Be  Be34  1  0.42891360  0.12687282  0.45245571  1
  Be  Be35  1  0.07108640  0.87312718  0.95245571  1
  Be  Be36  1  0.78554435  0.25000000  0.51022782  1
  Be  Be37  1  0.71445565  0.75000000  0.01022782  1
  Be  Be38  1  0.21445565  0.75000000  0.48977218  1
  Be  Be39  1  0.28554435  0.25000000  0.98977218  1
