# generated using pymatgen
data_H3He2(Li8Be3)2
_symmetry_space_group_name_H-M   'P 1'
_cell_length_a   10.28721634
_cell_length_b   7.30395156
_cell_length_c   10.79975286
_cell_angle_alpha   70.29501610
_cell_angle_beta   78.23902539
_cell_angle_gamma   80.89527322
_symmetry_Int_Tables_number   1
_chemical_formula_structural   H3He2(Li8Be3)2
_chemical_formula_sum   'H6 He4 Li32 Be12'
_cell_volume   744.37269402
_cell_formula_units_Z   2
loop_
 _symmetry_equiv_pos_site_id
 _symmetry_equiv_pos_as_xyz
  1  'x, y, z'
loop_
 _atom_site_type_symbol
 _atom_site_label
 _atom_site_symmetry_multiplicity
 _atom_site_fract_x
 _atom_site_fract_y
 _atom_site_fract_z
 _atom_site_occupancy
  H  H0  1  0.14976242  0.58112483  0.51567484  1
  H  H1  1  0.85023758  0.41887517  0.48432516  1
  H  H2  1  0.13437218  0.64856232  0.88803627  1
  H  H3  1  0.86562782  0.35143768  0.11196373  1
  H  H4  1  0.12491342  0.15477573  0.88014054  1
  H  H5  1  0.87508658  0.84522427  0.11985946  1
  He  He6  1  0.13465288  0.08215976  0.52062967  1
  He  He7  1  0.86534712  0.91784024  0.47937033  1
  He  He8  1  0.41902884  0.17711116  0.17525813  1
  He  He9  1  0.58097116  0.82288884  0.82474187  1
  Li  Li10  1  0.02182667  0.54852347  0.12653731  1
  Li  Li11  1  0.97817333  0.45147653  0.87346269  1
  Li  Li12  1  0.26579823  0.55960336  0.17527355  1
  Li  Li13  1  0.73420177  0.44039664  0.82472645  1
  Li  Li14  1  0.18206407  0.22216100  0.23698322  1
  Li  Li15  1  0.81793593  0.77783900  0.76301678  1
  Li  Li16  1  0.06713787  0.44552771  0.38273174  1
  Li  Li17  1  0.93286213  0.55447229  0.61726826  1
  Li  Li18  1  0.02350951  0.06548965  0.13087989  1
  Li  Li19  1  0.97649049  0.93451035  0.86912011  1
  Li  Li20  1  0.27778417  0.92605569  0.16351242  1
  Li  Li21  1  0.72221583  0.07394431  0.83648758  1
  Li  Li22  1  0.08769473  0.88787513  0.38306655  1
  Li  Li23  1  0.91230527  0.11212487  0.61693345  1
  Li  Li24  1  0.24868590  0.85229884  0.94238804  1
  Li  Li25  1  0.75131410  0.14770116  0.05761196  1
  Li  Li26  1  0.47812048  0.73917720  0.04234017  1
  Li  Li27  1  0.52187952  0.26082280  0.95765983  1
  Li  Li28  1  0.49882060  0.70593198  0.50986057  1
  Li  Li29  1  0.50117940  0.29406802  0.49013943  1
  Li  Li30  1  0.24518526  0.25666649  0.62847349  1
  Li  Li31  1  0.75481474  0.74333351  0.37152651  1
  Li  Li32  1  0.43897675  0.94879106  0.65134144  1
  Li  Li33  1  0.56102325  0.05120894  0.34865856  1
  Li  Li34  1  0.45780034  0.21938636  0.74852883  1
  Li  Li35  1  0.54219966  0.78061364  0.25147117  1
  Li  Li36  1  0.45104044  0.58000282  0.77110660  1
  Li  Li37  1  0.54895956  0.41999718  0.22889340  1
  Li  Li38  1  0.26324555  0.34702364  0.91757759  1
  Li  Li39  1  0.73675445  0.65297636  0.08242241  1
  Li  Li40  1  0.24219659  0.74218332  0.64065798  1
  Li  Li41  1  0.75780341  0.25781668  0.35934202  1
  Be  Be42  1  0.12657513  0.45021560  0.23122689  1
  Be  Be43  1  0.87342487  0.54978440  0.76877311  1
  Be  Be44  1  0.13270948  0.01858586  0.23119442  1
  Be  Be45  1  0.86729052  0.98141414  0.76880558  1
  Be  Be46  1  0.31275185  0.77322695  0.07628982  1
  Be  Be47  1  0.68724815  0.22677305  0.92371018  1
  Be  Be48  1  0.40187911  0.18560670  0.62671250  1
  Be  Be49  1  0.59812089  0.81439330  0.37328750  1
  Be  Be50  1  0.39876854  0.74631488  0.63926888  1
  Be  Be51  1  0.60123146  0.25368512  0.36073112  1
  Be  Be52  1  0.41646431  0.35176854  0.84956866  1
  Be  Be53  1  0.58353569  0.64823146  0.15043134  1
