# generated using pymatgen
data_H2
_symmetry_space_group_name_H-M   'P 1'
_cell_length_a   4.50101080
_cell_length_b   4.50102716
_cell_length_c   5.96234355
_cell_angle_alpha   89.99994710
_cell_angle_beta   89.99997209
_cell_angle_gamma   120.00000985
_symmetry_Int_Tables_number   1
_chemical_formula_structural   H2
_chemical_formula_sum   H3
_cell_volume   104.60905371
_cell_formula_units_Z   1
loop_
 _symmetry_equiv_pos_site_id
 _symmetry_equiv_pos_as_xyz
  1  'x, y, z'
loop_
 _atom_site_type_symbol
 _atom_site_label
 _atom_site_symmetry_multiplicity
 _atom_site_fract_x
 _atom_site_fract_y
 _atom_site_fract_z
 _atom_site_occupancy
  H  H0  1  0.27032225  0.00000023  0.33331105  1
  H  H1  1  0.99999980  0.27032122  0.66664435  1
  H  H2  1  0.72967795  0.72967855  0.99997793  1
