# generated using pymatgen
data_HHe2Li2
_symmetry_space_group_name_H-M   'P 1'
_cell_length_a   11.00192975
_cell_length_b   11.00192975
_cell_length_c   5.20597142
_cell_angle_alpha   90.00000000
_cell_angle_beta   90.00000000
_cell_angle_gamma   90.00000000
_symmetry_Int_Tables_number   1
_chemical_formula_structural   HHe2Li2
_chemical_formula_sum   'H4 He8 Li8'
_cell_volume   630.14357725
_cell_formula_units_Z   4
loop_
 _symmetry_equiv_pos_site_id
 _symmetry_equiv_pos_as_xyz
  1  'x, y, z'
loop_
 _atom_site_type_symbol
 _atom_site_label
 _atom_site_symmetry_multiplicity
 _atom_site_fract_x
 _atom_site_fract_y
 _atom_site_fract_z
 _atom_site_occupancy
  H  H0  1  0.85173381  0.14826619  0.00000000  1
  H  H1  1  0.14826619  0.85173381  0.00000000  1
  H  H2  1  0.35173381  0.35173381  0.50000000  1
  H  H3  1  0.64826619  0.64826619  0.50000000  1
  He  He4  1  0.59552858  0.40447142  0.00000000  1
  He  He5  1  0.40447142  0.59552858  0.00000000  1
  He  He6  1  0.09552858  0.09552858  0.50000000  1
  He  He7  1  0.90447142  0.90447142  0.50000000  1
  He  He8  1  0.18668955  0.18668955  0.00000000  1
  He  He9  1  0.81331045  0.81331045  0.00000000  1
  He  He10  1  0.31331045  0.68668955  0.50000000  1
  He  He11  1  0.68668955  0.31331045  0.50000000  1
  Li  Li12  1  0.47056925  0.14101608  0.00000000  1
  Li  Li13  1  0.52943075  0.85898392  0.00000000  1
  Li  Li14  1  0.35898392  0.97056925  0.50000000  1
  Li  Li15  1  0.64101608  0.02943075  0.50000000  1
  Li  Li16  1  0.02943075  0.64101608  0.50000000  1
  Li  Li17  1  0.97056925  0.35898392  0.50000000  1
  Li  Li18  1  0.14101608  0.47056925  0.00000000  1
  Li  Li19  1  0.85898392  0.52943075  0.00000000  1
