# generated using pymatgen
data_HHeLi4
_symmetry_space_group_name_H-M   'P 1'
_cell_length_a   5.20021384
_cell_length_b   5.20021384
_cell_length_c   5.20021384
_cell_angle_alpha   60.00000000
_cell_angle_beta   60.00000000
_cell_angle_gamma   60.00000000
_symmetry_Int_Tables_number   1
_chemical_formula_structural   HHeLi4
_chemical_formula_sum   'H1 He1 Li4'
_cell_volume   99.43713701
_cell_formula_units_Z   1
loop_
 _symmetry_equiv_pos_site_id
 _symmetry_equiv_pos_as_xyz
  1  'x, y, z'
loop_
 _atom_site_type_symbol
 _atom_site_label
 _atom_site_symmetry_multiplicity
 _atom_site_fract_x
 _atom_site_fract_y
 _atom_site_fract_z
 _atom_site_occupancy
  H  H0  1  0.50000000  0.50000000  0.50000000  1
  He  He1  1  0.00000000  0.00000000  0.00000000  1
  Li  Li2  1  0.88490832  0.88490832  0.88490832  1
  Li  Li3  1  0.88490832  0.88490832  0.34527503  1
  Li  Li4  1  0.34527503  0.88490832  0.88490832  1
  Li  Li5  1  0.88490832  0.34527503  0.88490832  1
