# generated using pymatgen
data_HHe2
_symmetry_space_group_name_H-M   'P 1'
_cell_length_a   4.49928851
_cell_length_b   7.67467341
_cell_length_c   9.03188227
_cell_angle_alpha   90.00000000
_cell_angle_beta   90.00000000
_cell_angle_gamma   90.00000000
_symmetry_Int_Tables_number   1
_chemical_formula_structural   HHe2
_chemical_formula_sum   'H4 He8'
_cell_volume   311.87604180
_cell_formula_units_Z   4
loop_
 _symmetry_equiv_pos_site_id
 _symmetry_equiv_pos_as_xyz
  1  'x, y, z'
loop_
 _atom_site_type_symbol
 _atom_site_label
 _atom_site_symmetry_multiplicity
 _atom_site_fract_x
 _atom_site_fract_y
 _atom_site_fract_z
 _atom_site_occupancy
  H  H0  1  0.25000000  0.24407246  0.88369855  1
  H  H1  1  0.75000000  0.25592754  0.38369855  1
  H  H2  1  0.75000000  0.75592754  0.11630145  1
  H  H3  1  0.25000000  0.74407246  0.61630145  1
  He  He4  1  0.25000000  0.85539495  0.92928845  1
  He  He5  1  0.75000000  0.64460505  0.42928845  1
  He  He6  1  0.75000000  0.14460505  0.07071155  1
  He  He7  1  0.25000000  0.35539495  0.57071155  1
  He  He8  1  0.25000000  0.97675041  0.33455936  1
  He  He9  1  0.75000000  0.52324959  0.83455936  1
  He  He10  1  0.75000000  0.02324959  0.66544064  1
  He  He11  1  0.25000000  0.47675041  0.16544064  1
