# generated using pymatgen
data_HHe
_symmetry_space_group_name_H-M   'P 1'
_cell_length_a   4.37119920
_cell_length_b   4.37081272
_cell_length_c   7.14252394
_cell_angle_alpha   90.00000000
_cell_angle_beta   90.00000000
_cell_angle_gamma   120.00292504
_symmetry_Int_Tables_number   1
_chemical_formula_structural   HHe
_chemical_formula_sum   'H2 He2'
_cell_volume   118.17682855
_cell_formula_units_Z   2
loop_
 _symmetry_equiv_pos_site_id
 _symmetry_equiv_pos_as_xyz
  1  'x, y, z'
loop_
 _atom_site_type_symbol
 _atom_site_label
 _atom_site_symmetry_multiplicity
 _atom_site_fract_x
 _atom_site_fract_y
 _atom_site_fract_z
 _atom_site_occupancy
  H  H0  1  0.33331240  0.66662479  0.99988690  1
  H  H1  1  0.66668760  0.33337521  0.49988690  1
  He  He2  1  0.33331373  0.66662746  0.37511310  1
  He  He3  1  0.66668627  0.33337254  0.87511310  1
