# generated using pymatgen
data_H4HeLi7
_symmetry_space_group_name_H-M   'P 1'
_cell_length_a   7.90248491
_cell_length_b   7.90248491
_cell_length_c   5.49426537
_cell_angle_alpha   76.26620202
_cell_angle_beta   76.26620202
_cell_angle_gamma   69.11855698
_symmetry_Int_Tables_number   1
_chemical_formula_structural   H4HeLi7
_chemical_formula_sum   'H8 He2 Li14'
_cell_volume   306.96731452
_cell_formula_units_Z   2
loop_
 _symmetry_equiv_pos_site_id
 _symmetry_equiv_pos_as_xyz
  1  'x, y, z'
loop_
 _atom_site_type_symbol
 _atom_site_label
 _atom_site_symmetry_multiplicity
 _atom_site_fract_x
 _atom_site_fract_y
 _atom_site_fract_z
 _atom_site_occupancy
  H  H0  1  0.07750858  0.25024372  0.69727337  1
  H  H1  1  0.74975628  0.92249142  0.80272663  1
  H  H2  1  0.92249142  0.74975628  0.30272663  1
  H  H3  1  0.25024372  0.07750858  0.19727337  1
  H  H4  1  0.67937523  0.56032029  0.75823917  1
  H  H5  1  0.43967971  0.32062477  0.74176083  1
  H  H6  1  0.32062477  0.43967971  0.24176083  1
  H  H7  1  0.56032029  0.67937523  0.25823917  1
  He  He8  1  0.19099368  0.80900632  0.75000000  1
  He  He9  1  0.80900632  0.19099368  0.25000000  1
  Li  Li10  1  0.46814210  0.53185790  0.75000000  1
  Li  Li11  1  0.53185790  0.46814210  0.25000000  1
  Li  Li12  1  0.06317957  0.16753962  0.43386708  1
  Li  Li13  1  0.83246038  0.93682043  0.06613292  1
  Li  Li14  1  0.93682043  0.83246038  0.56613292  1
  Li  Li15  1  0.16753962  0.06317957  0.93386708  1
  Li  Li16  1  0.86375870  0.37368251  0.85237716  1
  Li  Li17  1  0.62631749  0.13624130  0.64762284  1
  Li  Li18  1  0.13624130  0.62631749  0.14762284  1
  Li  Li19  1  0.37368251  0.86375870  0.35237716  1
  Li  Li20  1  0.74884830  0.63626082  0.42020858  1
  Li  Li21  1  0.36373918  0.25115170  0.07979142  1
  Li  Li22  1  0.25115170  0.36373918  0.57979142  1
  Li  Li23  1  0.63626082  0.74884830  0.92020858  1
