# generated using pymatgen
data_HHe2Li4
_symmetry_space_group_name_H-M   'P 1'
_cell_length_a   16.42454301
_cell_length_b   16.42454301
_cell_length_c   3.66911193
_cell_angle_alpha   90.00000000
_cell_angle_beta   90.00000000
_cell_angle_gamma   167.13350608
_symmetry_Int_Tables_number   1
_chemical_formula_structural   HHe2Li4
_chemical_formula_sum   'H2 He4 Li8'
_cell_volume   220.40876035
_cell_formula_units_Z   2
loop_
 _symmetry_equiv_pos_site_id
 _symmetry_equiv_pos_as_xyz
  1  'x, y, z'
loop_
 _atom_site_type_symbol
 _atom_site_label
 _atom_site_symmetry_multiplicity
 _atom_site_fract_x
 _atom_site_fract_y
 _atom_site_fract_z
 _atom_site_occupancy
  H  H0  1  0.25003708  0.74996292  0.25000000  1
  H  H1  1  0.74996292  0.25003708  0.75000000  1
  He  He2  1  0.95342903  0.04657097  0.25000000  1
  He  He3  1  0.04657097  0.95342903  0.75000000  1
  He  He4  1  0.67590229  0.32409771  0.25000000  1
  He  He5  1  0.32409771  0.67590229  0.75000000  1
  Li  Li6  1  0.52448055  0.47551945  0.25000000  1
  Li  Li7  1  0.47551945  0.52448055  0.75000000  1
  Li  Li8  1  0.38810455  0.61189545  0.25000000  1
  Li  Li9  1  0.61189545  0.38810455  0.75000000  1
  Li  Li10  1  0.11207071  0.88792929  0.25000000  1
  Li  Li11  1  0.88792929  0.11207071  0.75000000  1
  Li  Li12  1  0.79814861  0.20185139  0.25000000  1
  Li  Li13  1  0.20185139  0.79814861  0.75000000  1
