# generated using pymatgen
data_H6HeLiBe
_symmetry_space_group_name_H-M   'P 1'
_cell_length_a   10.41757730
_cell_length_b   5.58573878
_cell_length_c   12.68352012
_cell_angle_alpha   88.54129117
_cell_angle_beta   90.00000000
_cell_angle_gamma   90.00000000
_symmetry_Int_Tables_number   1
_chemical_formula_structural   H6HeLiBe
_chemical_formula_sum   'H24 He4 Li4 Be4'
_cell_volume   737.81315016
_cell_formula_units_Z   4
loop_
 _symmetry_equiv_pos_site_id
 _symmetry_equiv_pos_as_xyz
  1  'x, y, z'
loop_
 _atom_site_type_symbol
 _atom_site_label
 _atom_site_symmetry_multiplicity
 _atom_site_fract_x
 _atom_site_fract_y
 _atom_site_fract_z
 _atom_site_occupancy
  H  H0  1  0.39249875  0.64041362  0.30651723  1
  H  H1  1  0.89249875  0.35958638  0.19348277  1
  H  H2  1  0.60750125  0.35958638  0.69348277  1
  H  H3  1  0.10750125  0.64041362  0.80651723  1
  H  H4  1  0.61724350  0.49029965  0.37948521  1
  H  H5  1  0.11724350  0.50970035  0.12051479  1
  H  H6  1  0.38275650  0.50970035  0.62051479  1
  H  H7  1  0.88275650  0.49029965  0.87948521  1
  H  H8  1  0.59340046  0.09407612  0.27339891  1
  H  H9  1  0.09340046  0.90592388  0.22660109  1
  H  H10  1  0.40659954  0.90592388  0.72660109  1
  H  H11  1  0.90659954  0.09407612  0.77339891  1
  H  H12  1  0.36830909  0.23875206  0.20317662  1
  H  H13  1  0.86830909  0.76124794  0.29682338  1
  H  H14  1  0.63169091  0.76124794  0.79682338  1
  H  H15  1  0.13169091  0.23875206  0.70317662  1
  H  H16  1  0.41406573  0.21973403  0.41675325  1
  H  H17  1  0.91406573  0.78026597  0.08324675  1
  H  H18  1  0.58593427  0.78026597  0.58324675  1
  H  H19  1  0.08593427  0.21973403  0.91675325  1
  H  H20  1  0.10610769  0.82145380  0.54039910  1
  H  H21  1  0.60610769  0.17854620  0.95960090  1
  H  H22  1  0.89389231  0.17854620  0.45960090  1
  H  H23  1  0.39389231  0.82145380  0.04039910  1
  He  He24  1  0.58211360  0.52452617  0.16333649  1
  He  He25  1  0.08211360  0.47547383  0.33666351  1
  He  He26  1  0.41788640  0.47547383  0.83666351  1
  He  He27  1  0.91788640  0.52452617  0.66333649  1
  Li  Li28  1  0.50678564  0.39288055  0.27001102  1
  Li  Li29  1  0.00678564  0.60711945  0.22998898  1
  Li  Li30  1  0.49321436  0.60711945  0.72998898  1
  Li  Li31  1  0.99321436  0.39288055  0.77001102  1
  Be  Be32  1  0.25250788  0.01800069  0.47896596  1
  Be  Be33  1  0.75250788  0.98199931  0.02103404  1
  Be  Be34  1  0.74749212  0.98199931  0.52103404  1
  Be  Be35  1  0.24749212  0.01800069  0.97896596  1
