# generated using pymatgen
data_H8HeLi4
_symmetry_space_group_name_H-M   'P 1'
_cell_length_a   7.08322111
_cell_length_b   7.08322111
_cell_length_c   7.08322111
_cell_angle_alpha   98.79942711
_cell_angle_beta   98.79942711
_cell_angle_gamma   133.95141072
_symmetry_Int_Tables_number   1
_chemical_formula_structural   H8HeLi4
_chemical_formula_sum   'H8 He1 Li4'
_cell_volume   235.46681970
_cell_formula_units_Z   1
loop_
 _symmetry_equiv_pos_site_id
 _symmetry_equiv_pos_as_xyz
  1  'x, y, z'
loop_
 _atom_site_type_symbol
 _atom_site_label
 _atom_site_symmetry_multiplicity
 _atom_site_fract_x
 _atom_site_fract_y
 _atom_site_fract_z
 _atom_site_occupancy
  H  H0  1  -0.00000000  0.65003198  0.65003198  1
  H  H1  1  0.00000000  0.34996802  0.34996802  1
  H  H2  1  0.65003198  -0.00000000  0.65003198  1
  H  H3  1  0.34996802  0.00000000  0.34996802  1
  H  H4  1  0.50000000  0.72777589  0.22777589  1
  H  H5  1  0.50000000  0.27222411  0.77222411  1
  H  H6  1  0.72777589  0.50000000  0.22777589  1
  H  H7  1  0.27222411  0.50000000  0.77222411  1
  He  He8  1  -0.00000000  -0.00000000  0.00000000  1
  Li  Li9  1  0.00000000  0.00000000  0.50000000  1
  Li  Li10  1  0.50000000  0.50000000  0.50000000  1
  Li  Li11  1  -0.00000000  0.50000000  0.00000000  1
  Li  Li12  1  0.50000000  -0.00000000  -0.00000000  1
