# generated using pymatgen
data_H2HeLi4
_symmetry_space_group_name_H-M   'P 1'
_cell_length_a   8.01059967
_cell_length_b   8.01059967
_cell_length_c   8.01059967
_cell_angle_alpha   132.05871854
_cell_angle_beta   132.05871854
_cell_angle_gamma   70.13630314
_symmetry_Int_Tables_number   1
_chemical_formula_structural   H2HeLi4
_chemical_formula_sum   'H2 He1 Li4'
_cell_volume   277.76893303
_cell_formula_units_Z   1
loop_
 _symmetry_equiv_pos_site_id
 _symmetry_equiv_pos_as_xyz
  1  'x, y, z'
loop_
 _atom_site_type_symbol
 _atom_site_label
 _atom_site_symmetry_multiplicity
 _atom_site_fract_x
 _atom_site_fract_y
 _atom_site_fract_z
 _atom_site_occupancy
  H  H0  1  0.50000000  0.50000000  0.00000000  1
  H  H1  1  0.75000000  0.25000000  0.50000000  1
  He  He2  1  -0.00000000  0.00000000  0.00000000  1
  Li  Li3  1  0.36592659  0.39356607  0.49693480  1
  Li  Li4  1  0.89663127  0.86899179  0.50306520  1
  Li  Li5  1  0.60643393  0.10336873  0.97236052  1
  Li  Li6  1  0.13100821  0.63407341  0.02763948  1
