# generated using pymatgen
data_HHe2Li
_symmetry_space_group_name_H-M   'P 1'
_cell_length_a   8.32107688
_cell_length_b   8.32107688
_cell_length_c   3.99816554
_cell_angle_alpha   90.00000000
_cell_angle_beta   90.00000000
_cell_angle_gamma   151.45485650
_symmetry_Int_Tables_number   1
_chemical_formula_structural   HHe2Li
_chemical_formula_sum   'H2 He4 Li2'
_cell_volume   132.28553894
_cell_formula_units_Z   2
loop_
 _symmetry_equiv_pos_site_id
 _symmetry_equiv_pos_as_xyz
  1  'x, y, z'
loop_
 _atom_site_type_symbol
 _atom_site_label
 _atom_site_symmetry_multiplicity
 _atom_site_fract_x
 _atom_site_fract_y
 _atom_site_fract_z
 _atom_site_occupancy
  H  H0  1  0.31739896  0.68260104  0.75000000  1
  H  H1  1  0.68260104  0.31739896  0.25000000  1
  He  He2  1  0.45606163  0.54393837  0.75000000  1
  He  He3  1  0.54393837  0.45606163  0.25000000  1
  He  He4  1  0.75036649  0.24963351  0.75000000  1
  He  He5  1  0.24963351  0.75036649  0.25000000  1
  Li  Li6  1  0.10626911  0.89373089  0.75000000  1
  Li  Li7  1  0.89373089  0.10626911  0.25000000  1
