# generated using pymatgen
data_H2He2Li
_symmetry_space_group_name_H-M   'P 1'
_cell_length_a   7.93795428
_cell_length_b   7.93795428
_cell_length_c   7.93795428
_cell_angle_alpha   122.62992768
_cell_angle_beta   112.38066902
_cell_angle_gamma   94.59033739
_symmetry_Int_Tables_number   1
_chemical_formula_structural   H2He2Li
_chemical_formula_sum   'H4 He4 Li2'
_cell_volume   362.41706319
_cell_formula_units_Z   2
loop_
 _symmetry_equiv_pos_site_id
 _symmetry_equiv_pos_as_xyz
  1  'x, y, z'
loop_
 _atom_site_type_symbol
 _atom_site_label
 _atom_site_symmetry_multiplicity
 _atom_site_fract_x
 _atom_site_fract_y
 _atom_site_fract_z
 _atom_site_occupancy
  H  H0  1  0.26392471  0.72767225  0.99159696  1
  H  H1  1  0.73607529  0.72767225  0.46374754  1
  H  H2  1  0.73607529  0.27232775  0.00840304  1
  H  H3  1  0.26392471  0.27232775  0.53625246  1
  He  He4  1  0.21332470  0.71332470  0.50000000  1
  He  He5  1  0.78667530  0.28667530  0.50000000  1
  He  He6  1  0.82281167  0.82281167  -0.00000000  1
  He  He7  1  0.17718833  0.17718833  -0.00000000  1
  Li  Li8  1  -0.00000000  0.70875613  0.70875613  1
  Li  Li9  1  0.00000000  0.29124387  0.29124387  1
