# generated using pymatgen
data_H2HeLi
_symmetry_space_group_name_H-M   'P 1'
_cell_length_a   5.59220896
_cell_length_b   5.59220896
_cell_length_c   6.89350984
_cell_angle_alpha   90.00000000
_cell_angle_beta   90.00000000
_cell_angle_gamma   137.66048997
_symmetry_Int_Tables_number   1
_chemical_formula_structural   H2HeLi
_chemical_formula_sum   'H4 He2 Li2'
_cell_volume   145.19752684
_cell_formula_units_Z   2
loop_
 _symmetry_equiv_pos_site_id
 _symmetry_equiv_pos_as_xyz
  1  'x, y, z'
loop_
 _atom_site_type_symbol
 _atom_site_label
 _atom_site_symmetry_multiplicity
 _atom_site_fract_x
 _atom_site_fract_y
 _atom_site_fract_z
 _atom_site_occupancy
  H  H0  1  0.16149295  0.83850705  0.94564146  1
  H  H1  1  0.83850705  0.16149295  0.44564146  1
  H  H2  1  0.16149295  0.83850705  0.55435854  1
  H  H3  1  0.83850705  0.16149295  0.05435854  1
  He  He4  1  0.44271640  0.55728360  0.75000000  1
  He  He5  1  0.55728360  0.44271640  0.25000000  1
  Li  Li6  1  0.71713292  0.28286708  0.75000000  1
  Li  Li7  1  0.28286708  0.71713292  0.25000000  1
