# generated using pymatgen
data_HHeLi
_symmetry_space_group_name_H-M   'P 1'
_cell_length_a   4.33814895
_cell_length_b   6.97671394
_cell_length_c   7.53126734
_cell_angle_alpha   90.00000000
_cell_angle_beta   90.00000000
_cell_angle_gamma   90.00000000
_symmetry_Int_Tables_number   1
_chemical_formula_structural   HHeLi
_chemical_formula_sum   'H4 He4 Li4'
_cell_volume   227.94152016
_cell_formula_units_Z   4
loop_
 _symmetry_equiv_pos_site_id
 _symmetry_equiv_pos_as_xyz
  1  'x, y, z'
loop_
 _atom_site_type_symbol
 _atom_site_label
 _atom_site_symmetry_multiplicity
 _atom_site_fract_x
 _atom_site_fract_y
 _atom_site_fract_z
 _atom_site_occupancy
  H  H0  1  0.25000000  0.78957681  0.39696310  1
  H  H1  1  0.75000000  0.71042319  0.89696310  1
  H  H2  1  0.75000000  0.21042319  0.60303690  1
  H  H3  1  0.25000000  0.28957681  0.10303690  1
  He  He4  1  0.25000000  0.15490729  0.43003835  1
  He  He5  1  0.75000000  0.34509271  0.93003835  1
  He  He6  1  0.75000000  0.84509271  0.56996165  1
  He  He7  1  0.25000000  0.65490729  0.06996165  1
  Li  Li8  1  0.25000000  0.49902695  0.69550670  1
  Li  Li9  1  0.75000000  0.00097305  0.19550670  1
  Li  Li10  1  0.75000000  0.50097305  0.30449330  1
  Li  Li11  1  0.25000000  0.99902695  0.80449330  1
