# generated using pymatgen
data_HHe6LiBe3
_symmetry_space_group_name_H-M   'P 1'
_cell_length_a   6.89038657
_cell_length_b   6.89038657
_cell_length_c   6.89038657
_cell_angle_alpha   91.94611994
_cell_angle_beta   91.94611994
_cell_angle_gamma   91.94611994
_symmetry_Int_Tables_number   1
_chemical_formula_structural   HHe6LiBe3
_chemical_formula_sum   'H2 He12 Li2 Be6'
_cell_volume   326.55858907
_cell_formula_units_Z   2
loop_
 _symmetry_equiv_pos_site_id
 _symmetry_equiv_pos_as_xyz
  1  'x, y, z'
loop_
 _atom_site_type_symbol
 _atom_site_label
 _atom_site_symmetry_multiplicity
 _atom_site_fract_x
 _atom_site_fract_y
 _atom_site_fract_z
 _atom_site_occupancy
  H  H0  1  0.25000000  0.25000000  0.25000000  1
  H  H1  1  0.75000000  0.75000000  0.75000000  1
  He  He2  1  0.08631812  0.29151861  0.95297435  1
  He  He3  1  0.95297435  0.08631812  0.29151861  1
  He  He4  1  0.29151861  0.95297435  0.08631812  1
  He  He5  1  0.20848139  0.41368188  0.54702565  1
  He  He6  1  0.41368188  0.54702565  0.20848139  1
  He  He7  1  0.54702565  0.20848139  0.41368188  1
  He  He8  1  0.91368188  0.70848139  0.04702565  1
  He  He9  1  0.04702565  0.91368188  0.70848139  1
  He  He10  1  0.70848139  0.04702565  0.91368188  1
  He  He11  1  0.79151861  0.58631812  0.45297435  1
  He  He12  1  0.58631812  0.45297435  0.79151861  1
  He  He13  1  0.45297435  0.79151861  0.58631812  1
  Li  Li14  1  0.00000000  -0.00000000  0.00000000  1
  Li  Li15  1  0.50000000  0.50000000  0.50000000  1
  Be  Be16  1  0.25000000  0.61855324  0.88144676  1
  Be  Be17  1  0.88144676  0.25000000  0.61855324  1
  Be  Be18  1  0.61855324  0.88144676  0.25000000  1
  Be  Be19  1  0.75000000  0.38144676  0.11855324  1
  Be  Be20  1  0.11855324  0.75000000  0.38144676  1
  Be  Be21  1  0.38144676  0.11855324  0.75000000  1
