# generated using pymatgen
data_HHe4Li3
_symmetry_space_group_name_H-M   'P 1'
_cell_length_a   8.73904667
_cell_length_b   12.22399430
_cell_length_c   10.16062255
_cell_angle_alpha   90.00000000
_cell_angle_beta   90.00000000
_cell_angle_gamma   90.00000000
_symmetry_Int_Tables_number   1
_chemical_formula_structural   HHe4Li3
_chemical_formula_sum   'H4 He16 Li12'
_cell_volume   1085.41924127
_cell_formula_units_Z   4
loop_
 _symmetry_equiv_pos_site_id
 _symmetry_equiv_pos_as_xyz
  1  'x, y, z'
loop_
 _atom_site_type_symbol
 _atom_site_label
 _atom_site_symmetry_multiplicity
 _atom_site_fract_x
 _atom_site_fract_y
 _atom_site_fract_z
 _atom_site_occupancy
  H  H0  1  0.71035411  0.42632175  0.75000000  1
  H  H1  1  0.21035411  0.07367825  0.25000000  1
  H  H2  1  0.28964589  0.57367825  0.25000000  1
  H  H3  1  0.78964589  0.92632175  0.75000000  1
  He  He4  1  0.67889853  0.24846187  0.75000000  1
  He  He5  1  0.17889853  0.25153813  0.25000000  1
  He  He6  1  0.32110147  0.75153813  0.25000000  1
  He  He7  1  0.82110147  0.74846187  0.75000000  1
  He  He8  1  0.48709422  0.51035434  0.75000000  1
  He  He9  1  0.98709422  0.98964566  0.25000000  1
  He  He10  1  0.51290578  0.48964566  0.25000000  1
  He  He11  1  0.01290578  0.01035434  0.75000000  1
  He  He12  1  0.84200181  0.47458872  0.92444685  1
  He  He13  1  0.34200181  0.02541128  0.07555315  1
  He  He14  1  0.15799819  0.52541128  0.42444685  1
  He  He15  1  0.65799819  0.97458872  0.57555315  1
  He  He16  1  0.15799819  0.52541128  0.07555315  1
  He  He17  1  0.65799819  0.97458872  0.92444685  1
  He  He18  1  0.84200181  0.47458872  0.57555315  1
  He  He19  1  0.34200181  0.02541128  0.42444685  1
  Li  Li20  1  0.38696526  0.33984982  0.47397040  1
  Li  Li21  1  0.88696526  0.16015018  0.52602960  1
  Li  Li22  1  0.61303474  0.66015018  0.97397040  1
  Li  Li23  1  0.11303474  0.83984982  0.02602960  1
  Li  Li24  1  0.61303474  0.66015018  0.52602960  1
  Li  Li25  1  0.11303474  0.83984982  0.47397040  1
  Li  Li26  1  0.38696526  0.33984982  0.02602960  1
  Li  Li27  1  0.88696526  0.16015018  0.97397040  1
  Li  Li28  1  0.08490971  0.58484727  0.75000000  1
  Li  Li29  1  0.58490971  0.91515273  0.25000000  1
  Li  Li30  1  0.91509029  0.41515273  0.25000000  1
  Li  Li31  1  0.41509029  0.08484727  0.75000000  1
