# generated using pymatgen
data_HHe2Li5
_symmetry_space_group_name_H-M   'P 1'
_cell_length_a   7.93615916
_cell_length_b   7.93615916
_cell_length_c   7.93615916
_cell_angle_alpha   96.48578067
_cell_angle_beta   96.48578067
_cell_angle_gamma   140.72230624
_symmetry_Int_Tables_number   1
_chemical_formula_structural   HHe2Li5
_chemical_formula_sum   'H2 He4 Li10'
_cell_volume   298.03126273
_cell_formula_units_Z   2
loop_
 _symmetry_equiv_pos_site_id
 _symmetry_equiv_pos_as_xyz
  1  'x, y, z'
loop_
 _atom_site_type_symbol
 _atom_site_label
 _atom_site_symmetry_multiplicity
 _atom_site_fract_x
 _atom_site_fract_y
 _atom_site_fract_z
 _atom_site_occupancy
  H  H0  1  0.25000000  0.25000000  0.00000000  1
  H  H1  1  0.75000000  0.75000000  0.00000000  1
  He  He2  1  0.83637779  0.66362221  0.50000000  1
  He  He3  1  0.16362221  0.33637779  0.50000000  1
  He  He4  1  0.66362221  0.16362221  0.82724442  1
  He  He5  1  0.33637779  0.83637779  0.17275558  1
  Li  Li6  1  0.25000000  0.75000000  0.50000000  1
  Li  Li7  1  0.75000000  0.25000000  0.50000000  1
  Li  Li8  1  0.92837428  0.19936543  0.12773971  1
  Li  Li9  1  0.07162572  0.80063457  0.87226029  1
  Li  Li10  1  0.19936543  0.07162572  0.27099115  1
  Li  Li11  1  0.80063457  0.92837428  0.72900885  1
  Li  Li12  1  0.57162572  0.69936543  0.27099115  1
  Li  Li13  1  0.42837428  0.30063457  0.72900885  1
  Li  Li14  1  0.30063457  0.57162572  0.87226029  1
  Li  Li15  1  0.69936543  0.42837428  0.12773971  1
