# generated using pymatgen
data_H3He5
_symmetry_space_group_name_H-M   'P 1'
_cell_length_a   8.01176502
_cell_length_b   8.01176502
_cell_length_c   5.58218491
_cell_angle_alpha   90.00000000
_cell_angle_beta   90.00000000
_cell_angle_gamma   119.99982158
_symmetry_Int_Tables_number   1
_chemical_formula_structural   H3He5
_chemical_formula_sum   'H6 He10'
_cell_volume   310.30733251
_cell_formula_units_Z   2
loop_
 _symmetry_equiv_pos_site_id
 _symmetry_equiv_pos_as_xyz
  1  'x, y, z'
loop_
 _atom_site_type_symbol
 _atom_site_label
 _atom_site_symmetry_multiplicity
 _atom_site_fract_x
 _atom_site_fract_y
 _atom_site_fract_z
 _atom_site_occupancy
  H  H0  1  0.61080714  0.00000197  0.25000000  1
  H  H1  1  0.00000197  0.61080714  0.25000000  1
  H  H2  1  0.38919380  0.38919380  0.25000000  1
  H  H3  1  0.38919286  0.99999803  0.75000000  1
  H  H4  1  0.99999803  0.38919286  0.75000000  1
  H  H5  1  0.61080620  0.61080620  0.75000000  1
  He  He6  1  0.33333211  0.66666789  0.00000000  1
  He  He7  1  0.66666789  0.33333211  0.50000000  1
  He  He8  1  0.66666789  0.33333211  0.00000000  1
  He  He9  1  0.33333211  0.66666789  0.50000000  1
  He  He10  1  0.25363462  0.00000110  0.25000000  1
  He  He11  1  0.00000110  0.25363462  0.25000000  1
  He  He12  1  0.74636318  0.74636318  0.25000000  1
  He  He13  1  0.74636538  0.99999890  0.75000000  1
  He  He14  1  0.99999890  0.74636538  0.75000000  1
  He  He15  1  0.25363682  0.25363682  0.75000000  1
