# generated using pymatgen
data_HHe2Li4
_symmetry_space_group_name_H-M   'P 1'
_cell_length_a   4.53253691
_cell_length_b   7.29822062
_cell_length_c   18.90176097
_cell_angle_alpha   90.00000000
_cell_angle_beta   90.00000000
_cell_angle_gamma   90.00000000
_symmetry_Int_Tables_number   1
_chemical_formula_structural   HHe2Li4
_chemical_formula_sum   'H4 He8 Li16'
_cell_volume   625.25993887
_cell_formula_units_Z   4
loop_
 _symmetry_equiv_pos_site_id
 _symmetry_equiv_pos_as_xyz
  1  'x, y, z'
loop_
 _atom_site_type_symbol
 _atom_site_label
 _atom_site_symmetry_multiplicity
 _atom_site_fract_x
 _atom_site_fract_y
 _atom_site_fract_z
 _atom_site_occupancy
  H  H0  1  0.75000000  0.49543137  0.35833703  1
  H  H1  1  0.25000000  0.99543137  0.14166297  1
  H  H2  1  0.25000000  0.50456863  0.64166297  1
  H  H3  1  0.75000000  0.00456863  0.85833703  1
  He  He4  1  0.75000000  0.75216164  0.53368661  1
  He  He5  1  0.25000000  0.25216164  0.96631339  1
  He  He6  1  0.25000000  0.24783836  0.46631339  1
  He  He7  1  0.75000000  0.74783836  0.03368661  1
  He  He8  1  0.75000000  0.51460126  0.78810260  1
  He  He9  1  0.25000000  0.01460126  0.71189740  1
  He  He10  1  0.25000000  0.48539874  0.21189740  1
  He  He11  1  0.75000000  0.98539874  0.28810260  1
  Li  Li12  1  0.75000000  0.80011526  0.68160768  1
  Li  Li13  1  0.25000000  0.30011526  0.81839232  1
  Li  Li14  1  0.25000000  0.19988474  0.31839232  1
  Li  Li15  1  0.75000000  0.69988474  0.18160768  1
  Li  Li16  1  0.75000000  0.22313859  0.69520572  1
  Li  Li17  1  0.25000000  0.72313859  0.80479428  1
  Li  Li18  1  0.25000000  0.77686141  0.30479428  1
  Li  Li19  1  0.75000000  0.27686141  0.19520572  1
  Li  Li20  1  0.75000000  0.36714420  0.53240637  1
  Li  Li21  1  0.25000000  0.86714420  0.96759363  1
  Li  Li22  1  0.25000000  0.63285580  0.46759363  1
  Li  Li23  1  0.75000000  0.13285580  0.03240637  1
  Li  Li24  1  0.75000000  0.01970848  0.43231717  1
  Li  Li25  1  0.25000000  0.51970848  0.06768283  1
  Li  Li26  1  0.25000000  0.98029152  0.56768283  1
  Li  Li27  1  0.75000000  0.48029152  0.93231717  1
