# generated using pymatgen
data_H2He2Li
_symmetry_space_group_name_H-M   'P 1'
_cell_length_a   5.40680282
_cell_length_b   5.40680282
_cell_length_c   3.92666461
_cell_angle_alpha   90.00000000
_cell_angle_beta   90.00000000
_cell_angle_gamma   90.00000000
_symmetry_Int_Tables_number   1
_chemical_formula_structural   H2He2Li
_chemical_formula_sum   'H4 He4 Li2'
_cell_volume   114.79021532
_cell_formula_units_Z   2
loop_
 _symmetry_equiv_pos_site_id
 _symmetry_equiv_pos_as_xyz
  1  'x, y, z'
loop_
 _atom_site_type_symbol
 _atom_site_label
 _atom_site_symmetry_multiplicity
 _atom_site_fract_x
 _atom_site_fract_y
 _atom_site_fract_z
 _atom_site_occupancy
  H  H0  1  0.36207021  0.86207021  0.50000000  1
  H  H1  1  0.63792979  0.13792979  0.50000000  1
  H  H2  1  0.13792979  0.36207021  0.50000000  1
  H  H3  1  0.86207021  0.63792979  0.50000000  1
  He  He4  1  0.16067716  0.66067716  0.50000000  1
  He  He5  1  0.83932284  0.33932284  0.50000000  1
  He  He6  1  0.33932284  0.16067716  0.50000000  1
  He  He7  1  0.66067716  0.83932284  0.50000000  1
  Li  Li8  1  0.00000000  0.00000000  0.00000000  1
  Li  Li9  1  0.50000000  0.50000000  0.00000000  1
