# generated using pymatgen
data_H2HeLi2
_symmetry_space_group_name_H-M   'P 1'
_cell_length_a   7.52576782
_cell_length_b   7.52576782
_cell_length_c   3.63592610
_cell_angle_alpha   90.00000000
_cell_angle_beta   90.00000000
_cell_angle_gamma   90.00000000
_symmetry_Int_Tables_number   1
_chemical_formula_structural   H2HeLi2
_chemical_formula_sum   'H4 He2 Li4'
_cell_volume   205.92860538
_cell_formula_units_Z   2
loop_
 _symmetry_equiv_pos_site_id
 _symmetry_equiv_pos_as_xyz
  1  'x, y, z'
loop_
 _atom_site_type_symbol
 _atom_site_label
 _atom_site_symmetry_multiplicity
 _atom_site_fract_x
 _atom_site_fract_y
 _atom_site_fract_z
 _atom_site_occupancy
  H  H0  1  0.37741010  0.87741010  0.00000000  1
  H  H1  1  0.62258990  0.12258990  -0.00000000  1
  H  H2  1  0.12258990  0.37741010  0.00000000  1
  H  H3  1  0.87741010  0.62258990  -0.00000000  1
  He  He4  1  0.00000000  0.00000000  0.00000000  1
  He  He5  1  0.50000000  0.50000000  0.00000000  1
  Li  Li6  1  0.17242380  0.67242380  0.50000000  1
  Li  Li7  1  0.82757620  0.32757620  0.50000000  1
  Li  Li8  1  0.32757620  0.17242380  0.50000000  1
  Li  Li9  1  0.67242380  0.82757620  0.50000000  1
