# generated using pymatgen
data_H3HeLi3Be
_symmetry_space_group_name_H-M   'P 1'
_cell_length_a   6.46261872
_cell_length_b   10.80189408
_cell_length_c   13.08820556
_cell_angle_alpha   90.00000000
_cell_angle_beta   90.00000000
_cell_angle_gamma   90.00000000
_symmetry_Int_Tables_number   1
_chemical_formula_structural   H3HeLi3Be
_chemical_formula_sum   'H12 He4 Li12 Be4'
_cell_volume   913.66829712
_cell_formula_units_Z   4
loop_
 _symmetry_equiv_pos_site_id
 _symmetry_equiv_pos_as_xyz
  1  'x, y, z'
loop_
 _atom_site_type_symbol
 _atom_site_label
 _atom_site_symmetry_multiplicity
 _atom_site_fract_x
 _atom_site_fract_y
 _atom_site_fract_z
 _atom_site_occupancy
  H  H0  1  0.23641415  0.75000000  0.63674590  1
  H  H1  1  0.26358585  0.25000000  0.13674590  1
  H  H2  1  0.76358585  0.25000000  0.36325410  1
  H  H3  1  0.73641415  0.75000000  0.86325410  1
  H  H4  1  0.26366185  0.95232057  0.37627665  1
  H  H5  1  0.23633815  0.04767943  0.87627665  1
  H  H6  1  0.73633815  0.45232057  0.62372335  1
  H  H7  1  0.76366185  0.54767943  0.12372335  1
  H  H8  1  0.73633815  0.04767943  0.62372335  1
  H  H9  1  0.76366185  0.95232057  0.12372335  1
  H  H10  1  0.26366185  0.54767943  0.37627665  1
  H  H11  1  0.23633815  0.45232057  0.87627665  1
  He  He12  1  0.86469854  0.75000000  0.44476594  1
  He  He13  1  0.63530146  0.25000000  0.94476594  1
  He  He14  1  0.13530146  0.25000000  0.55523406  1
  He  He15  1  0.36469854  0.75000000  0.05523406  1
  Li  Li16  1  0.73168527  0.75000000  0.62824475  1
  Li  Li17  1  0.76831473  0.25000000  0.12824475  1
  Li  Li18  1  0.26831473  0.25000000  0.37175525  1
  Li  Li19  1  0.23168527  0.75000000  0.87175525  1
  Li  Li20  1  0.75408364  0.95689272  0.37161259  1
  Li  Li21  1  0.74591636  0.04310728  0.87161259  1
  Li  Li22  1  0.24591636  0.45689272  0.62838741  1
  Li  Li23  1  0.25408364  0.54310728  0.12838741  1
  Li  Li24  1  0.24591636  0.04310728  0.62838741  1
  Li  Li25  1  0.25408364  0.95689272  0.12838741  1
  Li  Li26  1  0.75408364  0.54310728  0.37161259  1
  Li  Li27  1  0.74591636  0.45689272  0.87161259  1
  Be  Be28  1  0.15890071  0.75000000  0.45141487  1
  Be  Be29  1  0.34109929  0.25000000  0.95141487  1
  Be  Be30  1  0.84109929  0.25000000  0.54858513  1
  Be  Be31  1  0.65890071  0.75000000  0.04858513  1
