# generated using pymatgen
data_HHeLiBe5B
_symmetry_space_group_name_H-M   'P 1'
_cell_length_a   7.70897595
_cell_length_b   4.91113497
_cell_length_c   9.71336560
_cell_angle_alpha   89.83863369
_cell_angle_beta   90.00000000
_cell_angle_gamma   90.00000000
_symmetry_Int_Tables_number   1
_chemical_formula_structural   HHeLiBe5B
_chemical_formula_sum   'H4 He4 Li4 Be20 B4'
_cell_volume   367.74482838
_cell_formula_units_Z   4
loop_
 _symmetry_equiv_pos_site_id
 _symmetry_equiv_pos_as_xyz
  1  'x, y, z'
loop_
 _atom_site_type_symbol
 _atom_site_label
 _atom_site_symmetry_multiplicity
 _atom_site_fract_x
 _atom_site_fract_y
 _atom_site_fract_z
 _atom_site_occupancy
  H  H0  1  0.09014353  0.43319513  0.84039264  1
  H  H1  1  0.59014353  0.56680487  0.65960736  1
  H  H2  1  0.90985647  0.56680487  0.15960736  1
  H  H3  1  0.40985647  0.43319513  0.34039264  1
  He  He4  1  0.60400647  0.99014701  0.16259232  1
  He  He5  1  0.10400647  0.00985299  0.33740768  1
  He  He6  1  0.39599353  0.00985299  0.83740768  1
  He  He7  1  0.89599353  0.99014701  0.66259232  1
  Li  Li8  1  0.03761589  0.80407916  0.92438144  1
  Li  Li9  1  0.53761589  0.19592084  0.57561856  1
  Li  Li10  1  0.96238411  0.19592084  0.07561856  1
  Li  Li11  1  0.46238411  0.80407916  0.42438144  1
  Be  Be12  1  0.39902296  0.76279218  0.03749923  1
  Be  Be13  1  0.89902296  0.23720782  0.46250077  1
  Be  Be14  1  0.60097704  0.23720782  0.96250077  1
  Be  Be15  1  0.10097704  0.76279218  0.53749923  1
  Be  Be16  1  0.19935593  0.33272091  0.95693265  1
  Be  Be17  1  0.69935593  0.66727909  0.54306735  1
  Be  Be18  1  0.80064407  0.66727909  0.04306735  1
  Be  Be19  1  0.30064407  0.33272091  0.45693265  1
  Be  Be20  1  0.33414309  0.32916852  0.21038588  1
  Be  Be21  1  0.83414309  0.67083148  0.28961412  1
  Be  Be22  1  0.66585691  0.67083148  0.78961412  1
  Be  Be23  1  0.16585691  0.32916852  0.71038588  1
  Be  Be24  1  0.08578061  0.68577417  0.14626918  1
  Be  Be25  1  0.58578061  0.31422583  0.35373082  1
  Be  Be26  1  0.91421939  0.31422583  0.85373082  1
  Be  Be27  1  0.41421939  0.68577417  0.64626918  1
  Be  Be28  1  0.08556406  0.73916464  0.83684802  1
  Be  Be29  1  0.58556406  0.26083536  0.66315198  1
  Be  Be30  1  0.91443594  0.26083536  0.16315198  1
  Be  Be31  1  0.41443594  0.73916464  0.33684802  1
  B  B32  1  0.26420960  0.53405608  0.08455474  1
  B  B33  1  0.76420960  0.46594392  0.41544526  1
  B  B34  1  0.73579040  0.46594392  0.91544526  1
  B  B35  1  0.23579040  0.53405608  0.58455474  1
