# generated using pymatgen
data_H4He2Li
_symmetry_space_group_name_H-M   'P 1'
_cell_length_a   7.61928076
_cell_length_b   7.61928076
_cell_length_c   7.61928076
_cell_angle_alpha   107.78992973
_cell_angle_beta   107.78992973
_cell_angle_gamma   112.88881359
_symmetry_Int_Tables_number   1
_chemical_formula_structural   H4He2Li
_chemical_formula_sum   'H8 He4 Li2'
_cell_volume   339.58787265
_cell_formula_units_Z   2
loop_
 _symmetry_equiv_pos_site_id
 _symmetry_equiv_pos_as_xyz
  1  'x, y, z'
loop_
 _atom_site_type_symbol
 _atom_site_label
 _atom_site_symmetry_multiplicity
 _atom_site_fract_x
 _atom_site_fract_y
 _atom_site_fract_z
 _atom_site_occupancy
  H  H0  1  0.51315121  0.01315121  0.19603666  1
  H  H1  1  0.81711456  0.31711456  0.80396334  1
  H  H2  1  0.31711456  0.51315121  0.50000000  1
  H  H3  1  0.01315121  0.81711456  0.50000000  1
  H  H4  1  0.98684879  0.18288544  0.50000000  1
  H  H5  1  0.68288544  0.48684879  0.50000000  1
  H  H6  1  0.18288544  0.68288544  0.19603666  1
  H  H7  1  0.48684879  0.98684879  0.80396334  1
  He  He8  1  0.85866747  0.35866747  0.21733495  1
  He  He9  1  0.14133253  0.64133253  0.78266505  1
  He  He10  1  0.64133253  0.85866747  0.50000000  1
  He  He11  1  0.35866747  0.14133253  0.50000000  1
  Li  Li12  1  0.75000000  0.75000000  -0.00000000  1
  Li  Li13  1  0.25000000  0.25000000  -0.00000000  1
