# generated using pymatgen
data_H2
_symmetry_space_group_name_H-M   'P 1'
_cell_length_a   23.67288202
_cell_length_b   17.12748799
_cell_length_c   16.44523324
_cell_angle_alpha   89.65508294
_cell_angle_beta   46.34367346
_cell_angle_gamma   44.00124360
_symmetry_Int_Tables_number   1
_chemical_formula_structural   H2
_chemical_formula_sum   H32
_cell_volume   729.12295563
_cell_formula_units_Z   16
loop_
 _symmetry_equiv_pos_site_id
 _symmetry_equiv_pos_as_xyz
  1  'x, y, z'
loop_
 _atom_site_type_symbol
 _atom_site_label
 _atom_site_symmetry_multiplicity
 _atom_site_fract_x
 _atom_site_fract_y
 _atom_site_fract_z
 _atom_site_occupancy
  H  H0  1  0.52789309  0.52967130  0.47196844  1
  H  H1  1  0.02967130  0.02789309  0.47046716  1
  H  H2  1  0.97196844  0.47046716  0.02789309  1
  H  H3  1  0.97046716  0.47196844  0.52967130  1
  H  H4  1  0.47210691  0.47032870  0.52803156  1
  H  H5  1  0.97032870  0.97210691  0.52953284  1
  H  H6  1  0.02803156  0.52953284  0.97210691  1
  H  H7  1  0.02953284  0.52803156  0.47032870  1
  H  H8  1  0.70987675  0.09738649  0.15032666  1
  H  H9  1  0.59738649  0.20987675  0.04241011  1
  H  H10  1  0.65032666  0.04241011  0.20987675  1
  H  H11  1  0.54241011  0.15032666  0.09738649  1
  H  H12  1  0.29012325  0.90261351  0.84967334  1
  H  H13  1  0.40261351  0.79012325  0.95758989  1
  H  H14  1  0.34967334  0.95758989  0.79012325  1
  H  H15  1  0.45758989  0.84967334  0.90261351  1
  H  H16  1  0.22219643  0.77545575  0.96825592  1
  H  H17  1  0.27545575  0.72219643  0.03409190  1
  H  H18  1  0.46825592  0.03409190  0.72219643  1
  H  H19  1  0.53409190  0.96825592  0.77545575  1
  H  H20  1  0.77780357  0.22454425  0.03174408  1
  H  H21  1  0.72454425  0.27780357  0.96590810  1
  H  H22  1  0.53174408  0.96590810  0.27780357  1
  H  H23  1  0.46590810  0.03174408  0.22454425  1
  H  H24  1  0.29205959  0.40062609  0.85130998  1
  H  H25  1  0.90062609  0.79205959  0.45600434  1
  H  H26  1  0.35130998  0.45600434  0.79205959  1
  H  H27  1  0.95600434  0.85130998  0.40062609  1
  H  H28  1  0.70794041  0.59937391  0.14869002  1
  H  H29  1  0.09937391  0.20794041  0.54399566  1
  H  H30  1  0.64869002  0.54399566  0.20794041  1
  H  H31  1  0.04399566  0.14869002  0.59937391  1
