# generated using pymatgen
data_HHe6
_symmetry_space_group_name_H-M   'P 1'
_cell_length_a   5.33279279
_cell_length_b   5.33279279
_cell_length_c   5.33279279
_cell_angle_alpha   70.55049594
_cell_angle_beta   70.55049594
_cell_angle_gamma   70.55049594
_symmetry_Int_Tables_number   1
_chemical_formula_structural   HHe6
_chemical_formula_sum   'H2 He12'
_cell_volume   130.56802828
_cell_formula_units_Z   2
loop_
 _symmetry_equiv_pos_site_id
 _symmetry_equiv_pos_as_xyz
  1  'x, y, z'
loop_
 _atom_site_type_symbol
 _atom_site_label
 _atom_site_symmetry_multiplicity
 _atom_site_fract_x
 _atom_site_fract_y
 _atom_site_fract_z
 _atom_site_occupancy
  H  H0  1  0.39928016  0.39928016  0.39928016  1
  H  H1  1  0.60071984  0.60071984  0.60071984  1
  He  He2  1  0.17770927  0.72837672  0.17770927  1
  He  He3  1  0.17770927  0.17770927  0.72837672  1
  He  He4  1  0.72837672  0.17770927  0.17770927  1
  He  He5  1  0.82229073  0.27162328  0.82229073  1
  He  He6  1  0.27162328  0.82229073  0.82229073  1
  He  He7  1  0.82229073  0.82229073  0.27162328  1
  He  He8  1  0.01538724  0.32471086  0.01538724  1
  He  He9  1  0.01538724  0.01538724  0.32471086  1
  He  He10  1  0.32471086  0.01538724  0.01538724  1
  He  He11  1  0.98461276  0.67528914  0.98461276  1
  He  He12  1  0.67528914  0.98461276  0.98461276  1
  He  He13  1  0.98461276  0.98461276  0.67528914  1
