# generated using pymatgen
data_HHe2Li2
_symmetry_space_group_name_H-M   'P 1'
_cell_length_a   7.26244050
_cell_length_b   7.26244050
_cell_length_c   4.16695963
_cell_angle_alpha   90.00000000
_cell_angle_beta   90.00000000
_cell_angle_gamma   90.00000000
_symmetry_Int_Tables_number   1
_chemical_formula_structural   HHe2Li2
_chemical_formula_sum   'H2 He4 Li4'
_cell_volume   219.77812672
_cell_formula_units_Z   2
loop_
 _symmetry_equiv_pos_site_id
 _symmetry_equiv_pos_as_xyz
  1  'x, y, z'
loop_
 _atom_site_type_symbol
 _atom_site_label
 _atom_site_symmetry_multiplicity
 _atom_site_fract_x
 _atom_site_fract_y
 _atom_site_fract_z
 _atom_site_occupancy
  H  H0  1  0.00000000  0.00000000  0.00000000  1
  H  H1  1  0.50000000  0.50000000  0.00000000  1
  He  He2  1  0.17736518  0.67736518  0.50000000  1
  He  He3  1  0.82263482  0.32263482  0.50000000  1
  He  He4  1  0.32263482  0.17736518  0.50000000  1
  He  He5  1  0.67736518  0.82263482  0.50000000  1
  Li  Li6  1  0.62297607  0.12297607  0.00000000  1
  Li  Li7  1  0.37702393  0.87702393  -0.00000000  1
  Li  Li8  1  0.87702393  0.62297607  -0.00000000  1
  Li  Li9  1  0.12297607  0.37702393  0.00000000  1
