# generated using pymatgen
data_H3HeLi5Be9
_symmetry_space_group_name_H-M   'P 1'
_cell_length_a   8.81225508
_cell_length_b   8.81225508
_cell_length_c   7.47103914
_cell_angle_alpha   90.00000000
_cell_angle_beta   90.00000000
_cell_angle_gamma   110.10209992
_symmetry_Int_Tables_number   1
_chemical_formula_structural   H3HeLi5Be9
_chemical_formula_sum   'H6 He2 Li10 Be18'
_cell_volume   544.82683260
_cell_formula_units_Z   2
loop_
 _symmetry_equiv_pos_site_id
 _symmetry_equiv_pos_as_xyz
  1  'x, y, z'
loop_
 _atom_site_type_symbol
 _atom_site_label
 _atom_site_symmetry_multiplicity
 _atom_site_fract_x
 _atom_site_fract_y
 _atom_site_fract_z
 _atom_site_occupancy
  H  H0  1  0.41055729  0.98613836  0.03032500  1
  H  H1  1  0.58944271  0.01386164  0.53032500  1
  H  H2  1  0.01386164  0.58944271  0.46967500  1
  H  H3  1  0.98613836  0.41055729  0.96967500  1
  H  H4  1  0.62989481  0.62989481  0.00000000  1
  H  H5  1  0.37010519  0.37010519  0.50000000  1
  He  He6  1  0.94771726  0.05228274  0.25000000  1
  He  He7  1  0.05228274  0.94771726  0.75000000  1
  Li  Li8  1  0.23867953  0.23867953  0.00000000  1
  Li  Li9  1  0.76132047  0.76132047  0.50000000  1
  Li  Li10  1  0.99503327  0.73896039  0.06290483  1
  Li  Li11  1  0.00496673  0.26103961  0.56290483  1
  Li  Li12  1  0.26103961  0.00496673  0.43709517  1
  Li  Li13  1  0.73896039  0.99503327  0.93709517  1
  Li  Li14  1  0.63537740  0.36462260  0.25000000  1
  Li  Li15  1  0.36462260  0.63537740  0.75000000  1
  Li  Li16  1  0.36226779  0.63773221  0.25000000  1
  Li  Li17  1  0.63773221  0.36226779  0.75000000  1
  Be  Be18  1  0.49105919  0.49105919  0.00000000  1
  Be  Be19  1  0.50894081  0.50894081  0.50000000  1
  Be  Be20  1  0.52283970  0.13943799  0.99123434  1
  Be  Be21  1  0.47716030  0.86056201  0.49123434  1
  Be  Be22  1  0.86056201  0.47716030  0.50876566  1
  Be  Be23  1  0.13943799  0.52283970  0.00876566  1
  Be  Be24  1  0.84808199  0.44567417  0.01205520  1
  Be  Be25  1  0.15191801  0.55432583  0.51205520  1
  Be  Be26  1  0.55432583  0.15191801  0.48794480  1
  Be  Be27  1  0.44567417  0.84808199  0.98794480  1
  Be  Be28  1  0.30344604  0.30421826  0.66219092  1
  Be  Be29  1  0.69655396  0.69578174  0.16219092  1
  Be  Be30  1  0.69578174  0.69655396  0.83780908  1
  Be  Be31  1  0.30421826  0.30344604  0.33780908  1
  Be  Be32  1  0.26669991  0.97216592  0.11540915  1
  Be  Be33  1  0.73330009  0.02783408  0.61540915  1
  Be  Be34  1  0.02783408  0.73330009  0.38459085  1
  Be  Be35  1  0.97216592  0.26669991  0.88459085  1
