# generated using pymatgen
data_HHeLi2
_symmetry_space_group_name_H-M   'P 1'
_cell_length_a   5.58796877
_cell_length_b   5.58796877
_cell_length_c   5.58796877
_cell_angle_alpha   30.41515516
_cell_angle_beta   30.41515516
_cell_angle_gamma   30.41515516
_symmetry_Int_Tables_number   1
_chemical_formula_structural   HHeLi2
_chemical_formula_sum   'H1 He1 Li2'
_cell_volume   39.63767963
_cell_formula_units_Z   1
loop_
 _symmetry_equiv_pos_site_id
 _symmetry_equiv_pos_as_xyz
  1  'x, y, z'
loop_
 _atom_site_type_symbol
 _atom_site_label
 _atom_site_symmetry_multiplicity
 _atom_site_fract_x
 _atom_site_fract_y
 _atom_site_fract_z
 _atom_site_occupancy
  H  H0  1  0.50000000  0.50000000  0.50000000  1
  He  He1  1  0.00000000  0.00000000  -0.00000000  1
  Li  Li2  1  0.23168686  0.23168686  0.23168686  1
  Li  Li3  1  0.76831314  0.76831314  0.76831314  1
