# generated using pymatgen
data_HHe3
_symmetry_space_group_name_H-M   'P 1'
_cell_length_a   4.68386396
_cell_length_b   5.33331267
_cell_length_c   6.81511066
_cell_angle_alpha   90.00000000
_cell_angle_beta   90.00000000
_cell_angle_gamma   90.00000000
_symmetry_Int_Tables_number   1
_chemical_formula_structural   HHe3
_chemical_formula_sum   'H4 He12'
_cell_volume   170.24494677
_cell_formula_units_Z   4
loop_
 _symmetry_equiv_pos_site_id
 _symmetry_equiv_pos_as_xyz
  1  'x, y, z'
loop_
 _atom_site_type_symbol
 _atom_site_label
 _atom_site_symmetry_multiplicity
 _atom_site_fract_x
 _atom_site_fract_y
 _atom_site_fract_z
 _atom_site_occupancy
  H  H0  1  0.55540470  0.86678063  0.75000000  1
  H  H1  1  0.05540470  0.63321937  0.25000000  1
  H  H2  1  0.44459530  0.13321937  0.25000000  1
  H  H3  1  0.94459530  0.36678063  0.75000000  1
  He  He4  1  0.66483055  0.16310901  0.93331453  1
  He  He5  1  0.16483055  0.33689099  0.06668547  1
  He  He6  1  0.33516945  0.83689099  0.43331453  1
  He  He7  1  0.83516945  0.66310901  0.56668547  1
  He  He8  1  0.33516945  0.83689099  0.06668547  1
  He  He9  1  0.83516945  0.66310901  0.93331453  1
  He  He10  1  0.66483055  0.16310901  0.56668547  1
  He  He11  1  0.16483055  0.33689099  0.43331453  1
  He  He12  1  0.16751201  0.05326587  0.75000000  1
  He  He13  1  0.66751201  0.44673413  0.25000000  1
  He  He14  1  0.83248799  0.94673413  0.25000000  1
  He  He15  1  0.33248799  0.55326587  0.75000000  1
