# generated using pymatgen
data_H5He12Li3
_symmetry_space_group_name_H-M   'P 1'
_cell_length_a   10.74996261
_cell_length_b   10.74996261
_cell_length_c   10.74996261
_cell_angle_alpha   109.47122063
_cell_angle_beta   109.47122063
_cell_angle_gamma   109.47122063
_symmetry_Int_Tables_number   1
_chemical_formula_structural   H5He12Li3
_chemical_formula_sum   'H20 He48 Li12'
_cell_volume   956.31060072
_cell_formula_units_Z   4
loop_
 _symmetry_equiv_pos_site_id
 _symmetry_equiv_pos_as_xyz
  1  'x, y, z'
loop_
 _atom_site_type_symbol
 _atom_site_label
 _atom_site_symmetry_multiplicity
 _atom_site_fract_x
 _atom_site_fract_y
 _atom_site_fract_z
 _atom_site_occupancy
  H  H0  1  0.00000000  0.00000000  0.00000000  1
  H  H1  1  0.50000000  0.50000000  0.00000000  1
  H  H2  1  0.50000000  0.00000000  0.50000000  1
  H  H3  1  0.00000000  0.50000000  0.50000000  1
  H  H4  1  -0.00000000  -0.00000000  0.50000000  1
  H  H5  1  0.50000000  -0.00000000  -0.00000000  1
  H  H6  1  0.50000000  0.50000000  0.50000000  1
  H  H7  1  0.00000000  0.50000000  0.00000000  1
  H  H8  1  0.62500000  0.25000000  0.87500000  1
  H  H9  1  0.87500000  0.75000000  0.62500000  1
  H  H10  1  0.37500000  0.62500000  0.75000000  1
  H  H11  1  0.12500000  0.87500000  0.25000000  1
  H  H12  1  0.75000000  0.12500000  0.37500000  1
  H  H13  1  0.25000000  0.37500000  0.12500000  1
  H  H14  1  0.62500000  0.37500000  0.25000000  1
  H  H15  1  0.87500000  0.12500000  0.75000000  1
  H  H16  1  0.37500000  0.75000000  0.12500000  1
  H  H17  1  0.12500000  0.25000000  0.37500000  1
  H  H18  1  0.75000000  0.62500000  0.87500000  1
  H  H19  1  0.25000000  0.87500000  0.62500000  1
  He  He20  1  0.97084750  0.09267565  0.17375886  1
  He  He21  1  0.52915250  0.70291136  0.12182815  1
  He  He22  1  0.41891679  0.79708864  0.32624114  1
  He  He23  1  0.08108321  0.40732435  0.37817185  1
  He  He24  1  0.87817185  0.08108321  0.90732435  1
  He  He25  1  0.82624114  0.41891679  0.29708864  1
  He  He26  1  0.62182815  0.52915250  0.20291136  1
  He  He27  1  0.67375886  0.97084750  0.59267565  1
  He  He28  1  0.79708864  0.82624114  0.91891679  1
  He  He29  1  0.40732435  0.87817185  0.58108321  1
  He  He30  1  0.09267565  0.67375886  0.47084750  1
  He  He31  1  0.70291136  0.62182815  0.02915250  1
  He  He32  1  0.97084750  0.87817185  0.29708864  1
  He  He33  1  0.52915250  0.82624114  0.90732435  1
  He  He34  1  0.41891679  0.62182815  0.59267565  1
  He  He35  1  0.08108321  0.67375886  0.20291136  1
  He  He36  1  0.87817185  0.79708864  0.47084750  1
  He  He37  1  0.82624114  0.40732435  0.02915250  1
  He  He38  1  0.62182815  0.09267565  0.91891679  1
  He  He39  1  0.67375886  0.70291136  0.58108321  1
  He  He40  1  0.79708864  0.97084750  0.37817185  1
  He  He41  1  0.40732435  0.52915250  0.32624114  1
  He  He42  1  0.09267565  0.41891679  0.12182815  1
  He  He43  1  0.70291136  0.08108321  0.17375886  1
  He  He44  1  0.02915250  0.90732435  0.82624114  1
  He  He45  1  0.47084750  0.29708864  0.87817185  1
  He  He46  1  0.58108321  0.20291136  0.67375886  1
  He  He47  1  0.91891679  0.59267565  0.62182815  1
  He  He48  1  0.12182815  0.91891679  0.09267565  1
  He  He49  1  0.17375886  0.58108321  0.70291136  1
  He  He50  1  0.37817185  0.47084750  0.79708864  1
  He  He51  1  0.32624114  0.02915250  0.40732435  1
  He  He52  1  0.20291136  0.17375886  0.08108321  1
  He  He53  1  0.59267565  0.12182815  0.41891679  1
  He  He54  1  0.90732435  0.32624114  0.52915250  1
  He  He55  1  0.29708864  0.37817185  0.97084750  1
  He  He56  1  0.02915250  0.12182815  0.70291136  1
  He  He57  1  0.47084750  0.17375886  0.09267565  1
  He  He58  1  0.58108321  0.37817185  0.40732435  1
  He  He59  1  0.91891679  0.32624114  0.79708864  1
  He  He60  1  0.12182815  0.20291136  0.52915250  1
  He  He61  1  0.17375886  0.59267565  0.97084750  1
  He  He62  1  0.37817185  0.90732435  0.08108321  1
  He  He63  1  0.32624114  0.29708864  0.41891679  1
  He  He64  1  0.20291136  0.02915250  0.62182815  1
  He  He65  1  0.59267565  0.47084750  0.67375886  1
  He  He66  1  0.90732435  0.58108321  0.87817185  1
  He  He67  1  0.29708864  0.91891679  0.82624114  1
  Li  Li68  1  0.87500000  0.25000000  0.12500000  1
  Li  Li69  1  0.62500000  0.75000000  0.37500000  1
  Li  Li70  1  0.62500000  0.87500000  0.75000000  1
  Li  Li71  1  0.87500000  0.62500000  0.25000000  1
  Li  Li72  1  0.75000000  0.87500000  0.12500000  1
  Li  Li73  1  0.25000000  0.62500000  0.37500000  1
  Li  Li74  1  0.12500000  0.75000000  0.87500000  1
  Li  Li75  1  0.37500000  0.25000000  0.62500000  1
  Li  Li76  1  0.37500000  0.12500000  0.25000000  1
  Li  Li77  1  0.12500000  0.37500000  0.75000000  1
  Li  Li78  1  0.25000000  0.12500000  0.87500000  1
  Li  Li79  1  0.75000000  0.37500000  0.62500000  1
