# generated using pymatgen
data_HHe
_symmetry_space_group_name_H-M   'P 1'
_cell_length_a   6.56219587
_cell_length_b   8.41359371
_cell_length_c   8.71166595
_cell_angle_alpha   90.00000000
_cell_angle_beta   90.00000000
_cell_angle_gamma   90.00000000
_symmetry_Int_Tables_number   1
_chemical_formula_structural   HHe
_chemical_formula_sum   'H8 He8'
_cell_volume   480.98545041
_cell_formula_units_Z   8
loop_
 _symmetry_equiv_pos_site_id
 _symmetry_equiv_pos_as_xyz
  1  'x, y, z'
loop_
 _atom_site_type_symbol
 _atom_site_label
 _atom_site_symmetry_multiplicity
 _atom_site_fract_x
 _atom_site_fract_y
 _atom_site_fract_z
 _atom_site_occupancy
  H  H0  1  0.54922608  0.62341560  0.63393297  1
  H  H1  1  0.95077392  0.37658440  0.13393297  1
  H  H2  1  0.45077392  0.12341560  0.86606703  1
  H  H3  1  0.04922608  0.87658440  0.36606703  1
  H  H4  1  0.45077392  0.37658440  0.36606703  1
  H  H5  1  0.04922608  0.62341560  0.86606703  1
  H  H6  1  0.54922608  0.87658440  0.13393297  1
  H  H7  1  0.95077392  0.12341560  0.63393297  1
  He  He8  1  0.13976261  0.07289715  0.10391793  1
  He  He9  1  0.36023739  0.92710285  0.60391793  1
  He  He10  1  0.86023739  0.57289715  0.39608207  1
  He  He11  1  0.63976261  0.42710285  0.89608207  1
  He  He12  1  0.86023739  0.92710285  0.89608207  1
  He  He13  1  0.63976261  0.07289715  0.39608207  1
  He  He14  1  0.13976261  0.42710285  0.60391793  1
  He  He15  1  0.36023739  0.57289715  0.10391793  1
