# generated using pymatgen
data_HHe5LiBeB
_symmetry_space_group_name_H-M   'P 1'
_cell_length_a   5.75825902
_cell_length_b   9.73953106
_cell_length_c   10.07314094
_cell_angle_alpha   90.00000000
_cell_angle_beta   90.00000000
_cell_angle_gamma   90.00000000
_symmetry_Int_Tables_number   1
_chemical_formula_structural   HHe5LiBeB
_chemical_formula_sum   'H4 He20 Li4 Be4 B4'
_cell_volume   564.92937040
_cell_formula_units_Z   4
loop_
 _symmetry_equiv_pos_site_id
 _symmetry_equiv_pos_as_xyz
  1  'x, y, z'
loop_
 _atom_site_type_symbol
 _atom_site_label
 _atom_site_symmetry_multiplicity
 _atom_site_fract_x
 _atom_site_fract_y
 _atom_site_fract_z
 _atom_site_occupancy
  H  H0  1  0.89341286  0.04698453  0.11256427  1
  H  H1  1  0.10658714  0.45301547  0.61256427  1
  H  H2  1  0.39341286  0.95301547  0.38743573  1
  H  H3  1  0.60658714  0.54698453  0.88743573  1
  He  He4  1  0.71469874  0.25344670  0.29670640  1
  He  He5  1  0.28530126  0.24655330  0.79670640  1
  He  He6  1  0.21469874  0.74655330  0.20329360  1
  He  He7  1  0.78530126  0.75344670  0.70329360  1
  He  He8  1  0.70332381  0.52231308  0.39654385  1
  He  He9  1  0.29667619  0.97768692  0.89654385  1
  He  He10  1  0.20332381  0.47768692  0.10345615  1
  He  He11  1  0.79667619  0.02231308  0.60345615  1
  He  He12  1  0.50844818  0.31678420  0.55460339  1
  He  He13  1  0.49155182  0.18321580  0.05460339  1
  He  He14  1  0.00844818  0.68321580  0.94539661  1
  He  He15  1  -0.00844818  0.81678420  0.44539661  1
  He  He16  1  0.00057469  0.33035661  0.51920894  1
  He  He17  1  -0.00057469  0.16964339  0.01920894  1
  He  He18  1  0.50057469  0.66964339  0.98079106  1
  He  He19  1  0.49942531  0.83035661  0.48079106  1
  He  He20  1  0.31275340  0.02374021  0.33003449  1
  He  He21  1  0.68724660  0.47625979  0.83003449  1
  He  He22  1  0.81275340  0.97625979  0.16996551  1
  He  He23  1  0.18724660  0.52374021  0.66996551  1
  Li  Li24  1  0.20036181  0.13391353  0.57909150  1
  Li  Li25  1  0.79963819  0.36608647  0.07909150  1
  Li  Li26  1  0.70036181  0.86608647  0.92090850  1
  Li  Li27  1  0.29963819  0.63391353  0.42090850  1
  Be  Be28  1  0.73134721  0.35538475  0.44159503  1
  Be  Be29  1  0.26865279  0.14461525  0.94159503  1
  Be  Be30  1  0.23134721  0.64461525  0.05840497  1
  Be  Be31  1  0.76865279  0.85538475  0.55840497  1
  B  B32  1  0.05463629  0.90322833  0.27593399  1
  B  B33  1  0.94536371  0.59677167  0.77593399  1
  B  B34  1  0.55463629  0.09677167  0.22406601  1
  B  B35  1  0.44536371  0.40322833  0.72406601  1
