# generated using pymatgen
data_HHe2LiBe2
_symmetry_space_group_name_H-M   'P 1'
_cell_length_a   12.89408687
_cell_length_b   12.89408687
_cell_length_c   12.89408687
_cell_angle_alpha   109.47122063
_cell_angle_beta   109.47122063
_cell_angle_gamma   109.47122063
_symmetry_Int_Tables_number   1
_chemical_formula_structural   HHe2LiBe2
_chemical_formula_sum   'H12 He24 Li12 Be24'
_cell_volume   1650.25054406
_cell_formula_units_Z   12
loop_
 _symmetry_equiv_pos_site_id
 _symmetry_equiv_pos_as_xyz
  1  'x, y, z'
loop_
 _atom_site_type_symbol
 _atom_site_label
 _atom_site_symmetry_multiplicity
 _atom_site_fract_x
 _atom_site_fract_y
 _atom_site_fract_z
 _atom_site_occupancy
  H  H0  1  0.53919767  0.78919767  0.07839535  1
  H  H1  1  0.96080233  0.53919767  0.75000000  1
  H  H2  1  0.78919767  0.71080233  0.75000000  1
  H  H3  1  0.71080233  0.96080233  0.42160465  1
  H  H4  1  0.53919767  0.25000000  0.46080233  1
  H  H5  1  0.78919767  0.57839535  0.03919767  1
  H  H6  1  0.96080233  0.92160465  0.21080233  1
  H  H7  1  0.71080233  0.25000000  0.28919767  1
  H  H8  1  0.92160465  0.71080233  0.46080233  1
  H  H9  1  0.25000000  0.78919767  0.21080233  1
  H  H10  1  0.25000000  0.96080233  0.03919767  1
  H  H11  1  0.57839535  0.53919767  0.28919767  1
  He  He12  1  -0.00000000  0.75000000  -0.00000000  1
  He  He13  1  0.50000000  -0.00000000  0.25000000  1
  He  He14  1  0.75000000  0.75000000  0.25000000  1
  He  He15  1  0.75000000  0.50000000  0.50000000  1
  He  He16  1  0.40890653  0.65890653  0.25000000  1
  He  He17  1  0.09109347  0.84109347  0.75000000  1
  He  He18  1  0.84109347  0.25000000  0.59109347  1
  He  He19  1  0.65890653  0.75000000  0.90890653  1
  He  He20  1  0.75000000  0.40890653  0.15890653  1
  He  He21  1  0.25000000  0.09109347  0.34109347  1
  He  He22  1  0.09109347  0.75000000  0.34109347  1
  He  He23  1  0.40890653  0.25000000  0.15890653  1
  He  He24  1  0.65890653  0.40890653  0.75000000  1
  He  He25  1  0.84109347  0.09109347  0.25000000  1
  He  He26  1  0.75000000  0.84109347  0.59109347  1
  He  He27  1  0.25000000  0.65890653  0.90890653  1
  He  He28  1  -0.00000000  0.06228694  0.00000000  1
  He  He29  1  0.50000000  0.00000000  0.56228694  1
  He  He30  1  0.43771306  0.43771306  0.93771306  1
  He  He31  1  0.06228694  0.50000000  0.50000000  1
  He  He32  1  0.50000000  0.00000000  0.93771306  1
  He  He33  1  0.00000000  0.43771306  -0.00000000  1
  He  He34  1  0.06228694  0.06228694  0.56228694  1
  He  He35  1  0.43771306  0.50000000  0.50000000  1
  Li  Li36  1  0.35894034  0.60894034  0.71788067  1
  Li  Li37  1  0.14105966  0.35894034  0.75000000  1
  Li  Li38  1  0.60894034  0.89105966  0.75000000  1
  Li  Li39  1  0.89105966  0.14105966  0.78211933  1
  Li  Li40  1  0.35894034  0.25000000  0.64105966  1
  Li  Li41  1  0.60894034  0.21788067  0.85894034  1
  Li  Li42  1  0.14105966  0.28211933  0.39105966  1
  Li  Li43  1  0.89105966  0.25000000  0.10894034  1
  Li  Li44  1  0.28211933  0.89105966  0.64105966  1
  Li  Li45  1  0.25000000  0.60894034  0.39105966  1
  Li  Li46  1  0.25000000  0.14105966  0.85894034  1
  Li  Li47  1  0.21788067  0.35894034  0.10894034  1
  Be  Be48  1  0.92360395  0.60287026  0.40563446  1
  Be  Be49  1  0.57639605  0.48203051  0.17926631  1
  Be  Be50  1  0.30276420  0.89712974  0.32073369  1
  Be  Be51  1  0.19723580  0.01796949  0.09436554  1
  Be  Be52  1  0.48203051  0.67926631  0.07639605  1
  Be  Be53  1  0.60287026  0.90563446  0.42360395  1
  Be  Be54  1  0.01796949  0.59436554  0.69723580  1
  Be  Be55  1  0.89712974  0.82073369  0.80276420  1
  Be  Be56  1  0.59436554  0.19723580  0.51796949  1
  Be  Be57  1  0.82073369  0.30276420  0.39712974  1
  Be  Be58  1  0.67926631  0.57639605  0.98203051  1
  Be  Be59  1  0.90563446  0.92360395  0.10287026  1
  Be  Be60  1  0.57639605  0.59436554  0.39712974  1
  Be  Be61  1  0.92360395  0.82073369  0.51796949  1
  Be  Be62  1  0.19723580  0.67926631  0.10287026  1
  Be  Be63  1  0.30276420  0.90563446  0.98203051  1
  Be  Be64  1  0.01796949  0.92360395  0.32073369  1
  Be  Be65  1  0.89712974  0.57639605  0.09436554  1
  Be  Be66  1  0.48203051  0.30276420  0.40563446  1
  Be  Be67  1  0.60287026  0.19723580  0.17926631  1
  Be  Be68  1  0.90563446  0.48203051  0.80276420  1
  Be  Be69  1  0.67926631  0.60287026  0.69723580  1
  Be  Be70  1  0.82073369  0.01796949  0.42360395  1
  Be  Be71  1  0.59436554  0.89712974  0.07639605  1
