# generated using pymatgen
data_H9He2Li4Be5
_symmetry_space_group_name_H-M   'P 1'
_cell_length_a   9.99660085
_cell_length_b   9.99660085
_cell_length_c   9.99660085
_cell_angle_alpha   137.75150382
_cell_angle_beta   121.17528743
_cell_angle_gamma   75.05487547
_symmetry_Int_Tables_number   1
_chemical_formula_structural   H9He2Li4Be5
_chemical_formula_sum   'H9 He2 Li4 Be5'
_cell_volume   560.86874411
_cell_formula_units_Z   1
loop_
 _symmetry_equiv_pos_site_id
 _symmetry_equiv_pos_as_xyz
  1  'x, y, z'
loop_
 _atom_site_type_symbol
 _atom_site_label
 _atom_site_symmetry_multiplicity
 _atom_site_fract_x
 _atom_site_fract_y
 _atom_site_fract_z
 _atom_site_occupancy
  H  H0  1  0.60625895  0.86454289  0.74171606  1
  H  H1  1  0.12282683  0.86454289  0.25828394  1
  H  H2  1  0.87717317  0.13545711  0.74171606  1
  H  H3  1  0.39374105  0.13545711  0.25828394  1
  H  H4  1  0.79009242  0.02988811  0.23979570  1
  H  H5  1  0.79009242  0.55029672  0.76020430  1
  H  H6  1  0.20990758  0.97011189  0.76020430  1
  H  H7  1  0.20990758  0.44970328  0.23979570  1
  H  H8  1  0.50000000  0.50000000  0.00000000  1
  He  He9  1  0.90797692  0.90797692  -0.00000000  1
  He  He10  1  0.09202308  0.09202308  0.00000000  1
  Li  Li11  1  0.10273606  0.75161228  0.85434834  1
  Li  Li12  1  0.89726394  0.24838772  0.14565166  1
  Li  Li13  1  0.10273606  0.24838772  0.35112378  1
  Li  Li14  1  0.89726394  0.75161228  0.64887622  1
  Be  Be15  1  0.44716788  0.66626755  0.78090033  1
  Be  Be16  1  0.88536722  0.66626755  0.21909967  1
  Be  Be17  1  0.11463278  0.33373245  0.78090033  1
  Be  Be18  1  0.55283212  0.33373245  0.21909967  1
  Be  Be19  1  0.50000000  -0.00000000  0.50000000  1
