# generated using pymatgen
data_HHe2(Li4Be)2
_symmetry_space_group_name_H-M   'P 1'
_cell_length_a   6.69126021
_cell_length_b   5.71106712
_cell_length_c   4.99206439
_cell_angle_alpha   64.03700807
_cell_angle_beta   69.38024459
_cell_angle_gamma   56.79356699
_symmetry_Int_Tables_number   1
_chemical_formula_structural   HHe2(Li4Be)2
_chemical_formula_sum   'H1 He2 Li8 Be2'
_cell_volume   141.89602380
_cell_formula_units_Z   1
loop_
 _symmetry_equiv_pos_site_id
 _symmetry_equiv_pos_as_xyz
  1  'x, y, z'
loop_
 _atom_site_type_symbol
 _atom_site_label
 _atom_site_symmetry_multiplicity
 _atom_site_fract_x
 _atom_site_fract_y
 _atom_site_fract_z
 _atom_site_occupancy
  H  H0  1  -0.00000000  0.00000000  0.50000000  1
  He  He1  1  0.25612492  0.67145628  0.04386943  1
  He  He2  1  0.74387508  0.32854372  0.95613057  1
  Li  Li3  1  0.66710003  0.05417253  0.83003716  1
  Li  Li4  1  0.33289997  0.94582747  0.16996284  1
  Li  Li5  1  0.80659134  0.44140299  0.24116560  1
  Li  Li6  1  0.19340866  0.55859701  0.75883440  1
  Li  Li7  1  0.54094861  0.73592313  0.67969075  1
  Li  Li8  1  0.45905139  0.26407687  0.32030925  1
  Li  Li9  1  0.92167380  0.83675209  0.27443953  1
  Li  Li10  1  0.07832620  0.16324791  0.72556047  1
  Be  Be11  1  0.66440562  0.80432056  0.26960667  1
  Be  Be12  1  0.33559438  0.19567944  0.73039333  1
