# generated using pymatgen
data_HHe7Li2
_symmetry_space_group_name_H-M   'P 1'
_cell_length_a   8.91983776
_cell_length_b   8.91983776
_cell_length_c   8.91983776
_cell_angle_alpha   90.00000000
_cell_angle_beta   90.00000000
_cell_angle_gamma   90.00000000
_symmetry_Int_Tables_number   1
_chemical_formula_structural   HHe7Li2
_chemical_formula_sum   'H4 He28 Li8'
_cell_volume   709.69356207
_cell_formula_units_Z   4
loop_
 _symmetry_equiv_pos_site_id
 _symmetry_equiv_pos_as_xyz
  1  'x, y, z'
loop_
 _atom_site_type_symbol
 _atom_site_label
 _atom_site_symmetry_multiplicity
 _atom_site_fract_x
 _atom_site_fract_y
 _atom_site_fract_z
 _atom_site_occupancy
  H  H0  1  0.00000000  0.00000000  0.00000000  1
  H  H1  1  0.50000000  0.00000000  0.50000000  1
  H  H2  1  0.00000000  0.50000000  0.50000000  1
  H  H3  1  0.50000000  0.50000000  0.00000000  1
  He  He4  1  0.44290136  0.23533770  0.42863315  1
  He  He5  1  0.05709864  0.76466230  0.92863315  1
  He  He6  1  0.55709864  0.73533770  0.07136685  1
  He  He7  1  0.94290136  0.26466230  0.57136685  1
  He  He8  1  0.42863315  0.44290136  0.23533770  1
  He  He9  1  0.92863315  0.05709864  0.76466230  1
  He  He10  1  0.07136685  0.55709864  0.73533770  1
  He  He11  1  0.57136685  0.94290136  0.26466230  1
  He  He12  1  0.23533770  0.42863315  0.44290136  1
  He  He13  1  0.76466230  0.92863315  0.05709864  1
  He  He14  1  0.73533770  0.07136685  0.55709864  1
  He  He15  1  0.26466230  0.57136685  0.94290136  1
  He  He16  1  0.55709864  0.76466230  0.57136685  1
  He  He17  1  0.94290136  0.23533770  0.07136685  1
  He  He18  1  0.44290136  0.26466230  0.92863315  1
  He  He19  1  0.05709864  0.73533770  0.42863315  1
  He  He20  1  0.57136685  0.55709864  0.76466230  1
  He  He21  1  0.07136685  0.94290136  0.23533770  1
  He  He22  1  0.92863315  0.44290136  0.26466230  1
  He  He23  1  0.42863315  0.05709864  0.73533770  1
  He  He24  1  0.76466230  0.57136685  0.55709864  1
  He  He25  1  0.23533770  0.07136685  0.94290136  1
  He  He26  1  0.26466230  0.92863315  0.44290136  1
  He  He27  1  0.73533770  0.42863315  0.05709864  1
  He  He28  1  0.50000000  0.50000000  0.50000000  1
  He  He29  1  0.00000000  0.50000000  0.00000000  1
  He  He30  1  0.50000000  0.00000000  0.00000000  1
  He  He31  1  0.00000000  0.00000000  0.50000000  1
  Li  Li32  1  0.39737221  0.39737221  0.39737221  1
  Li  Li33  1  0.10262779  0.60262779  0.89737221  1
  Li  Li34  1  0.60262779  0.89737221  0.10262779  1
  Li  Li35  1  0.89737221  0.10262779  0.60262779  1
  Li  Li36  1  0.60262779  0.60262779  0.60262779  1
  Li  Li37  1  0.89737221  0.39737221  0.10262779  1
  Li  Li38  1  0.39737221  0.10262779  0.89737221  1
  Li  Li39  1  0.10262779  0.89737221  0.39737221  1
