# generated using pymatgen
data_H2He2Li7Be
_symmetry_space_group_name_H-M   'P 1'
_cell_length_a   4.93874156
_cell_length_b   10.87660703
_cell_length_c   11.09459045
_cell_angle_alpha   90.00000000
_cell_angle_beta   90.00000000
_cell_angle_gamma   90.00000000
_symmetry_Int_Tables_number   1
_chemical_formula_structural   H2He2Li7Be
_chemical_formula_sum   'H8 He8 Li28 Be4'
_cell_volume   595.96535435
_cell_formula_units_Z   4
loop_
 _symmetry_equiv_pos_site_id
 _symmetry_equiv_pos_as_xyz
  1  'x, y, z'
loop_
 _atom_site_type_symbol
 _atom_site_label
 _atom_site_symmetry_multiplicity
 _atom_site_fract_x
 _atom_site_fract_y
 _atom_site_fract_z
 _atom_site_occupancy
  H  H0  1  0.48922757  0.38439130  0.02201659  1
  H  H1  1  0.48922757  0.61560870  0.97798341  1
  H  H2  1  0.48922757  0.88439130  0.47798341  1
  H  H3  1  0.48922757  0.11560870  0.52201659  1
  H  H4  1  0.44743199  0.01379213  0.87244956  1
  H  H5  1  0.44743199  0.98620787  0.12755044  1
  H  H6  1  0.44743199  0.51379213  0.62755044  1
  H  H7  1  0.44743199  0.48620787  0.37244956  1
  He  He8  1  0.99001551  0.17906234  0.96718185  1
  He  He9  1  0.99001551  0.82093766  0.03281815  1
  He  He10  1  0.99001551  0.67906234  0.53281815  1
  He  He11  1  0.99001551  0.32093766  0.46718185  1
  He  He12  1  0.99339747  0.98404114  0.68709027  1
  He  He13  1  0.99339747  0.01595886  0.31290973  1
  He  He14  1  0.99339747  0.48404114  0.81290973  1
  He  He15  1  0.99339747  0.51595886  0.18709027  1
  Li  Li16  1  0.74347004  0.01921189  0.86040135  1
  Li  Li17  1  0.74347004  0.98078811  0.13959865  1
  Li  Li18  1  0.74347004  0.51921189  0.63959865  1
  Li  Li19  1  0.74347004  0.48078811  0.36040135  1
  Li  Li20  1  0.23407831  0.36542466  0.97886259  1
  Li  Li21  1  0.23407831  0.63457534  0.02113741  1
  Li  Li22  1  0.23407831  0.86542466  0.52113741  1
  Li  Li23  1  0.23407831  0.13457534  0.47886259  1
  Li  Li24  1  0.82550640  0.29983546  0.82628606  1
  Li  Li25  1  0.82550640  0.70016454  0.17371394  1
  Li  Li26  1  0.82550640  0.79983546  0.67371394  1
  Li  Li27  1  0.82550640  0.20016454  0.32628606  1
  Li  Li28  1  0.32621500  0.41095690  0.70121184  1
  Li  Li29  1  0.32621500  0.58904310  0.29878816  1
  Li  Li30  1  0.32621500  0.91095690  0.79878816  1
  Li  Li31  1  0.32621500  0.08904310  0.20121184  1
  Li  Li32  1  0.30894026  0.13014477  0.82583681  1
  Li  Li33  1  0.30894026  0.86985523  0.17416319  1
  Li  Li34  1  0.30894026  0.63014477  0.67416319  1
  Li  Li35  1  0.30894026  0.36985523  0.32583681  1
  Li  Li36  1  0.61486698  0.50000000  0.00000000  1
  Li  Li37  1  0.61486698  0.00000000  0.50000000  1
  Li  Li38  1  0.63577826  0.30380012  0.08930167  1
  Li  Li39  1  0.63577826  0.69619988  0.91069833  1
  Li  Li40  1  0.63577826  0.80380012  0.41069833  1
  Li  Li41  1  0.63577826  0.19619988  0.58930167  1
  Li  Li42  1  0.35362718  -0.00000000  0.00000000  1
  Li  Li43  1  0.35362718  0.50000000  0.50000000  1
  Be  Be44  1  0.50456210  0.25877349  0.74047432  1
  Be  Be45  1  0.50456210  0.74122651  0.25952568  1
  Be  Be46  1  0.50456210  0.75877349  0.75952568  1
  Be  Be47  1  0.50456210  0.24122651  0.24047432  1
