# generated using pymatgen
data_H5He8Li
_symmetry_space_group_name_H-M   'P 1'
_cell_length_a   9.52951459
_cell_length_b   9.52951459
_cell_length_c   9.42168508
_cell_angle_alpha   76.92387284
_cell_angle_beta   76.92387284
_cell_angle_gamma   20.88531849
_symmetry_Int_Tables_number   1
_chemical_formula_structural   H5He8Li
_chemical_formula_sum   'H5 He8 Li1'
_cell_volume   296.83834188
_cell_formula_units_Z   1
loop_
 _symmetry_equiv_pos_site_id
 _symmetry_equiv_pos_as_xyz
  1  'x, y, z'
loop_
 _atom_site_type_symbol
 _atom_site_label
 _atom_site_symmetry_multiplicity
 _atom_site_fract_x
 _atom_site_fract_y
 _atom_site_fract_z
 _atom_site_occupancy
  H  H0  1  0.00000000  0.00000000  0.00000000  1
  H  H1  1  0.35956716  0.35956716  0.99944284  1
  H  H2  1  0.64043284  0.64043284  0.00055716  1
  H  H3  1  0.28763432  0.28763432  0.36947002  1
  H  H4  1  0.71236568  0.71236568  0.63052998  1
  He  He5  1  0.56990514  0.56990514  0.79946942  1
  He  He6  1  0.43009486  0.43009486  0.20053058  1
  He  He7  1  0.08381676  0.08381676  0.19402347  1
  He  He8  1  0.91618324  0.91618324  0.80597653  1
  He  He9  1  0.15052636  0.15052636  0.49012858  1
  He  He10  1  0.84947364  0.84947364  0.50987142  1
  He  He11  1  0.24112956  0.24112956  0.84139573  1
  He  He12  1  0.75887044  0.75887044  0.15860427  1
  Li  Li13  1  0.50000000  0.50000000  0.50000000  1
