# generated using pymatgen
data_H6HeLi4
_symmetry_space_group_name_H-M   'P 1'
_cell_length_a   3.55871695
_cell_length_b   11.76699828
_cell_length_c   12.26429726
_cell_angle_alpha   90.00000000
_cell_angle_beta   90.00000000
_cell_angle_gamma   90.00000000
_symmetry_Int_Tables_number   1
_chemical_formula_structural   H6HeLi4
_chemical_formula_sum   'H12 He2 Li8'
_cell_volume   513.57255237
_cell_formula_units_Z   2
loop_
 _symmetry_equiv_pos_site_id
 _symmetry_equiv_pos_as_xyz
  1  'x, y, z'
loop_
 _atom_site_type_symbol
 _atom_site_label
 _atom_site_symmetry_multiplicity
 _atom_site_fract_x
 _atom_site_fract_y
 _atom_site_fract_z
 _atom_site_occupancy
  H  H0  1  0.00000000  0.48496829  0.75834827  1
  H  H1  1  0.00000000  0.51503171  0.24165173  1
  H  H2  1  -0.00000000  0.01503171  0.25834827  1
  H  H3  1  -0.00000000  0.98496829  0.74165173  1
  H  H4  1  -0.00000000  0.24059315  0.57058556  1
  H  H5  1  0.00000000  0.75940685  0.42941444  1
  H  H6  1  0.00000000  0.25940685  0.07058556  1
  H  H7  1  -0.00000000  0.74059315  0.92941444  1
  H  H8  1  0.50000000  0.23450368  0.82365207  1
  H  H9  1  0.50000000  0.76549632  0.17634793  1
  H  H10  1  0.50000000  0.26549632  0.32365207  1
  H  H11  1  0.50000000  0.73450368  0.67634793  1
  He  He12  1  0.50000000  0.50000000  0.50000000  1
  He  He13  1  0.50000000  0.00000000  -0.00000000  1
  Li  Li14  1  0.50000000  0.37991322  0.64372821  1
  Li  Li15  1  0.50000000  0.62008678  0.35627179  1
  Li  Li16  1  0.50000000  0.12008678  0.14372821  1
  Li  Li17  1  0.50000000  0.87991322  0.85627179  1
  Li  Li18  1  -0.00000000  0.39900465  0.42239472  1
  Li  Li19  1  0.00000000  0.60099535  0.57760528  1
  Li  Li20  1  0.00000000  0.10099535  0.92239472  1
  Li  Li21  1  -0.00000000  0.89900465  0.07760528  1
