# generated using pymatgen
data_HHe3Li
_symmetry_space_group_name_H-M   'P 1'
_cell_length_a   5.10238752
_cell_length_b   5.11798889
_cell_length_c   7.19862471
_cell_angle_alpha   90.00000000
_cell_angle_beta   90.00000000
_cell_angle_gamma   90.00325930
_symmetry_Int_Tables_number   1
_chemical_formula_structural   HHe3Li
_chemical_formula_sum   'H4 He12 Li4'
_cell_volume   187.98461628
_cell_formula_units_Z   4
loop_
 _symmetry_equiv_pos_site_id
 _symmetry_equiv_pos_as_xyz
  1  'x, y, z'
loop_
 _atom_site_type_symbol
 _atom_site_label
 _atom_site_symmetry_multiplicity
 _atom_site_fract_x
 _atom_site_fract_y
 _atom_site_fract_z
 _atom_site_occupancy
  H  H0  1  0.49373801  0.00121872  0.25000000  1
  H  H1  1  0.00614458  0.50120597  0.75000000  1
  H  H2  1  0.50615380  0.99878118  0.75000000  1
  H  H3  1  0.99373039  0.49879863  0.25000000  1
  He  He4  1  0.74018820  0.24019410  0.01945928  1
  He  He5  1  0.75970364  0.74019523  0.98045825  1
  He  He6  1  0.25970574  0.75980355  0.51946508  1
  He  He7  1  0.24018660  0.25980842  0.48045399  1
  He  He8  1  0.25970574  0.75980355  0.98053492  1
  He  He9  1  0.24018660  0.25980842  0.01954601  1
  He  He10  1  0.74018820  0.24019410  0.48054072  1
  He  He11  1  0.75970364  0.74019523  0.51954175  1
  He  He12  1  0.00083991  0.96190864  0.25000000  1
  He  He13  1  0.49883006  0.46190630  0.75000000  1
  He  He14  1  0.99906488  0.03809058  0.75000000  1
  He  He15  1  0.50108096  0.53808896  0.25000000  1
  Li  Li16  1  0.99996125  0.00000078  0.99999969  1
  Li  Li17  1  0.49996328  0.49999844  0.99999985  1
  Li  Li18  1  0.99996125  0.00000078  0.50000031  1
  Li  Li19  1  0.49996328  0.49999844  0.50000015  1
