# generated using pymatgen
data_H6He5
_symmetry_space_group_name_H-M   'P 1'
_cell_length_a   7.17984372
_cell_length_b   7.17985644
_cell_length_c   10.31522508
_cell_angle_alpha   90.00000000
_cell_angle_beta   90.00000000
_cell_angle_gamma   119.99994139
_symmetry_Int_Tables_number   1
_chemical_formula_structural   H6He5
_chemical_formula_sum   'H12 He10'
_cell_volume   460.51136145
_cell_formula_units_Z   2
loop_
 _symmetry_equiv_pos_site_id
 _symmetry_equiv_pos_as_xyz
  1  'x, y, z'
loop_
 _atom_site_type_symbol
 _atom_site_label
 _atom_site_symmetry_multiplicity
 _atom_site_fract_x
 _atom_site_fract_y
 _atom_site_fract_z
 _atom_site_occupancy
  H  H0  1  0.00000539  0.76181920  0.38928198  1
  H  H1  1  0.23818619  0.23818080  0.38928198  1
  H  H2  1  0.76180147  -0.00000000  0.38928407  1
  H  H3  1  0.99999461  0.23818080  0.88928198  1
  H  H4  1  0.76181381  0.76181920  0.88928198  1
  H  H5  1  0.23819853  0.00000000  0.88928407  1
  H  H6  1  0.23818619  0.23818080  0.11071802  1
  H  H7  1  0.00000539  0.76181920  0.11071802  1
  H  H8  1  0.76180147  -0.00000000  0.11071593  1
  H  H9  1  0.76181381  0.76181920  0.61071802  1
  H  H10  1  0.99999461  0.23818080  0.61071802  1
  H  H11  1  0.23819853  -0.00000000  0.61071593  1
  He  He12  1  0.66667331  0.33334662  -0.00000000  1
  He  He13  1  0.33332669  0.66665338  0.50000000  1
  He  He14  1  0.33332669  0.66665338  0.00000000  1
  He  He15  1  0.66667331  0.33334662  0.50000000  1
  He  He16  1  0.99999572  0.41412221  0.25000000  1
  He  He17  1  0.58587351  0.58587779  0.25000000  1
  He  He18  1  0.41412716  -0.00000000  0.25000000  1
  He  He19  1  0.00000428  0.58587779  0.75000000  1
  He  He20  1  0.41412649  0.41412221  0.75000000  1
  He  He21  1  0.58587284  0.00000000  0.75000000  1
