# generated using pymatgen
data_H2He2Li3
_symmetry_space_group_name_H-M   'P 1'
_cell_length_a   4.10624397
_cell_length_b   8.34848697
_cell_length_c   13.87592141
_cell_angle_alpha   90.00000000
_cell_angle_beta   90.00000000
_cell_angle_gamma   90.00000000
_symmetry_Int_Tables_number   1
_chemical_formula_structural   H2He2Li3
_chemical_formula_sum   'H8 He8 Li12'
_cell_volume   475.67941173
_cell_formula_units_Z   4
loop_
 _symmetry_equiv_pos_site_id
 _symmetry_equiv_pos_as_xyz
  1  'x, y, z'
loop_
 _atom_site_type_symbol
 _atom_site_label
 _atom_site_symmetry_multiplicity
 _atom_site_fract_x
 _atom_site_fract_y
 _atom_site_fract_z
 _atom_site_occupancy
  H  H0  1  0.25000000  0.46252269  0.35388297  1
  H  H1  1  0.75000000  0.03747731  0.85388297  1
  H  H2  1  0.75000000  0.53747731  0.64611703  1
  H  H3  1  0.25000000  0.96252269  0.14611703  1
  H  H4  1  0.25000000  0.85082441  0.36997691  1
  H  H5  1  0.75000000  0.64917559  0.86997691  1
  H  H6  1  0.75000000  0.14917559  0.63002309  1
  H  H7  1  0.25000000  0.35082441  0.13002309  1
  He  He8  1  0.25000000  0.15659350  0.30681342  1
  He  He9  1  0.75000000  0.34340650  0.80681342  1
  He  He10  1  0.75000000  0.84340650  0.69318658  1
  He  He11  1  0.25000000  0.65659350  0.19318658  1
  He  He12  1  0.25000000  0.64946439  0.52322660  1
  He  He13  1  0.75000000  0.85053561  0.02322660  1
  He  He14  1  0.75000000  0.35053561  0.47677340  1
  He  He15  1  0.25000000  0.14946439  0.97677340  1
  Li  Li16  1  0.25000000  0.03553172  0.54141515  1
  Li  Li17  1  0.75000000  0.46446828  0.04141515  1
  Li  Li18  1  0.75000000  0.96446828  0.45858485  1
  Li  Li19  1  0.25000000  0.53553172  0.95858485  1
  Li  Li20  1  0.25000000  0.34210722  0.63373334  1
  Li  Li21  1  0.75000000  0.15789278  0.13373334  1
  Li  Li22  1  0.75000000  0.65789278  0.36626666  1
  Li  Li23  1  0.25000000  0.84210722  0.86626666  1
  Li  Li24  1  0.25000000  0.58841973  0.75750561  1
  Li  Li25  1  0.75000000  0.91158027  0.25750561  1
  Li  Li26  1  0.75000000  0.41158027  0.24249439  1
  Li  Li27  1  0.25000000  0.08841973  0.74249439  1
