# generated using pymatgen
data_H2He9LiBe
_symmetry_space_group_name_H-M   'P 1'
_cell_length_a   9.95412412
_cell_length_b   9.95412412
_cell_length_c   11.11982226
_cell_angle_alpha   68.43529489
_cell_angle_beta   68.43529489
_cell_angle_gamma   96.14089275
_symmetry_Int_Tables_number   1
_chemical_formula_structural   H2He9LiBe
_chemical_formula_sum   'H8 He36 Li4 Be4'
_cell_volume   914.87142288
_cell_formula_units_Z   4
loop_
 _symmetry_equiv_pos_site_id
 _symmetry_equiv_pos_as_xyz
  1  'x, y, z'
loop_
 _atom_site_type_symbol
 _atom_site_label
 _atom_site_symmetry_multiplicity
 _atom_site_fract_x
 _atom_site_fract_y
 _atom_site_fract_z
 _atom_site_occupancy
  H  H0  1  0.04900674  0.25850624  0.97456504  1
  H  H1  1  0.74149376  0.95099326  0.52543496  1
  H  H2  1  0.95099326  0.74149376  0.02543496  1
  H  H3  1  0.25850624  0.04900674  0.47456504  1
  H  H4  1  0.06096101  0.43506553  0.30530708  1
  H  H5  1  0.56493447  0.93903899  0.19469292  1
  H  H6  1  0.93903899  0.56493447  0.69469292  1
  H  H7  1  0.43506553  0.06096101  0.80530708  1
  He  He8  1  0.06313278  0.09597991  0.09957752  1
  He  He9  1  0.90402009  0.93686722  0.40042248  1
  He  He10  1  0.93686722  0.90402009  0.90042248  1
  He  He11  1  0.09597991  0.06313278  0.59957752  1
  He  He12  1  0.87752149  0.29627665  0.06206093  1
  He  He13  1  0.70372335  0.12247851  0.43793907  1
  He  He14  1  0.12247851  0.70372335  0.93793907  1
  He  He15  1  0.29627665  0.87752149  0.56206093  1
  He  He16  1  0.05088411  0.22714662  0.82514252  1
  He  He17  1  0.77285338  0.94911589  0.67485748  1
  He  He18  1  0.94911589  0.77285338  0.17485748  1
  He  He19  1  0.22714662  0.05088411  0.32514252  1
  He  He20  1  0.78236384  0.59723867  0.07474584  1
  He  He21  1  0.40276133  0.21763616  0.42525416  1
  He  He22  1  0.21763616  0.40276133  0.92525416  1
  He  He23  1  0.59723867  0.78236384  0.57474584  1
  He  He24  1  0.98647198  0.30715421  0.48975195  1
  He  He25  1  0.69284579  0.01352802  0.01024805  1
  He  He26  1  0.01352802  0.69284579  0.51024805  1
  He  He27  1  0.30715421  0.98647198  0.98975195  1
  He  He28  1  0.13835211  0.61732421  0.27911018  1
  He  He29  1  0.38267579  0.86164789  0.22088982  1
  He  He30  1  0.86164789  0.38267579  0.72088982  1
  He  He31  1  0.61732421  0.13835211  0.77911018  1
  He  He32  1  0.91262804  0.43944755  0.25223020  1
  He  He33  1  0.56055245  0.08737196  0.24776980  1
  He  He34  1  0.08737196  0.56055245  0.74776980  1
  He  He35  1  0.43944755  0.91262804  0.75223020  1
  He  He36  1  0.21369037  0.37628076  0.19903279  1
  He  He37  1  0.62371924  0.78630963  0.30096721  1
  He  He38  1  0.78630963  0.62371924  0.80096721  1
  He  He39  1  0.37628076  0.21369037  0.69903279  1
  He  He40  1  0.57549677  0.45863764  0.40350672  1
  He  He41  1  0.54136236  0.42450323  0.09649328  1
  He  He42  1  0.42450323  0.54136236  0.59649328  1
  He  He43  1  0.45863764  0.57549677  0.90350672  1
  Li  Li44  1  0.67529076  0.32470924  0.25000000  1
  Li  Li45  1  0.32470924  0.67529076  0.75000000  1
  Li  Li46  1  0.12376562  0.87623438  0.25000000  1
  Li  Li47  1  0.87623438  0.12376562  0.75000000  1
  Be  Be48  1  0.64569673  0.62385663  0.46038807  1
  Be  Be49  1  0.37614337  0.35430327  0.03961193  1
  Be  Be50  1  0.35430327  0.37614337  0.53961193  1
  Be  Be51  1  0.62385663  0.64569673  0.96038807  1
