# generated using pymatgen
data_H2HeLiBe6
_symmetry_space_group_name_H-M   'P 1'
_cell_length_a   6.05952168
_cell_length_b   6.05952168
_cell_length_c   6.05952168
_cell_angle_alpha   47.43389888
_cell_angle_beta   47.43389888
_cell_angle_gamma   47.43389888
_symmetry_Int_Tables_number   1
_chemical_formula_structural   H2HeLiBe6
_chemical_formula_sum   'H2 He1 Li1 Be6'
_cell_volume   110.42549401
_cell_formula_units_Z   1
loop_
 _symmetry_equiv_pos_site_id
 _symmetry_equiv_pos_as_xyz
  1  'x, y, z'
loop_
 _atom_site_type_symbol
 _atom_site_label
 _atom_site_symmetry_multiplicity
 _atom_site_fract_x
 _atom_site_fract_y
 _atom_site_fract_z
 _atom_site_occupancy
  H  H0  1  0.24307048  0.24307048  0.24307048  1
  H  H1  1  0.75692952  0.75692952  0.75692952  1
  He  He2  1  -0.00000000  -0.00000000  0.00000000  1
  Li  Li3  1  0.50000000  0.50000000  0.50000000  1
  Be  Be4  1  0.27873130  0.49146890  0.96214188  1
  Be  Be5  1  0.96214188  0.27873130  0.49146890  1
  Be  Be6  1  0.49146890  0.96214188  0.27873130  1
  Be  Be7  1  0.72126870  0.50853110  0.03785812  1
  Be  Be8  1  0.03785812  0.72126870  0.50853110  1
  Be  Be9  1  0.50853110  0.03785812  0.72126870  1
