# generated using pymatgen
data_HHeLi
_symmetry_space_group_name_H-M   'P 1'
_cell_length_a   4.32293234
_cell_length_b   6.82157867
_cell_length_c   7.74073117
_cell_angle_alpha   90.00000000
_cell_angle_beta   90.00000000
_cell_angle_gamma   90.00000000
_symmetry_Int_Tables_number   1
_chemical_formula_structural   HHeLi
_chemical_formula_sum   'H4 He4 Li4'
_cell_volume   228.26814798
_cell_formula_units_Z   4
loop_
 _symmetry_equiv_pos_site_id
 _symmetry_equiv_pos_as_xyz
  1  'x, y, z'
loop_
 _atom_site_type_symbol
 _atom_site_label
 _atom_site_symmetry_multiplicity
 _atom_site_fract_x
 _atom_site_fract_y
 _atom_site_fract_z
 _atom_site_occupancy
  H  H0  1  0.25000000  0.34171314  0.57158019  1
  H  H1  1  0.75000000  0.15828686  0.07158019  1
  H  H2  1  0.75000000  0.65828686  0.42841981  1
  H  H3  1  0.25000000  0.84171314  0.92841981  1
  He  He4  1  0.25000000  0.22735868  0.89425059  1
  He  He5  1  0.75000000  0.27264132  0.39425059  1
  He  He6  1  0.75000000  0.77264132  0.10574941  1
  He  He7  1  0.25000000  0.72735868  0.60574941  1
  Li  Li8  1  0.25000000  0.97728731  0.31074702  1
  Li  Li9  1  0.75000000  0.52271269  0.81074702  1
  Li  Li10  1  0.75000000  0.02271269  0.68925298  1
  Li  Li11  1  0.25000000  0.47728731  0.18925298  1
