# generated using pymatgen
data_H6HeLiBe
_symmetry_space_group_name_H-M   'P 1'
_cell_length_a   10.68333373
_cell_length_b   7.96197942
_cell_length_c   13.01760261
_cell_angle_alpha   75.05389722
_cell_angle_beta   90.00000000
_cell_angle_gamma   90.00000000
_symmetry_Int_Tables_number   1
_chemical_formula_structural   H6HeLiBe
_chemical_formula_sum   'H24 He4 Li4 Be4'
_cell_volume   1069.82291029
_cell_formula_units_Z   4
loop_
 _symmetry_equiv_pos_site_id
 _symmetry_equiv_pos_as_xyz
  1  'x, y, z'
loop_
 _atom_site_type_symbol
 _atom_site_label
 _atom_site_symmetry_multiplicity
 _atom_site_fract_x
 _atom_site_fract_y
 _atom_site_fract_z
 _atom_site_occupancy
  H  H0  1  0.97600952  0.60079176  0.08825615  1
  H  H1  1  0.47600952  0.39920824  0.41174385  1
  H  H2  1  0.02399048  0.39920824  0.91174385  1
  H  H3  1  0.52399048  0.60079176  0.58825615  1
  H  H4  1  0.19034943  0.90584035  0.98463846  1
  H  H5  1  0.69034943  0.09415965  0.51536154  1
  H  H6  1  0.80965057  0.09415965  0.01536154  1
  H  H7  1  0.30965057  0.90584035  0.48463846  1
  H  H8  1  0.24078188  0.68655172  0.79061779  1
  H  H9  1  0.74078188  0.31344828  0.70938221  1
  H  H10  1  0.75921812  0.31344828  0.20938221  1
  H  H11  1  0.25921812  0.68655172  0.29061779  1
  H  H12  1  0.28390460  0.48311978  0.05059332  1
  H  H13  1  0.78390460  0.51688022  0.44940668  1
  H  H14  1  0.71609540  0.51688022  0.94940668  1
  H  H15  1  0.21609540  0.48311978  0.55059332  1
  H  H16  1  0.04966462  0.08757488  0.67525177  1
  H  H17  1  0.54966462  0.91242512  0.82474823  1
  H  H18  1  0.95033538  0.91242512  0.32474823  1
  H  H19  1  0.45033538  0.08757488  0.17525177  1
  H  H20  1  0.93422796  0.73655160  0.64763803  1
  H  H21  1  0.43422796  0.26344840  0.85236197  1
  H  H22  1  0.06577204  0.26344840  0.35236197  1
  H  H23  1  0.56577204  0.73655160  0.14763803  1
  He  He24  1  0.97957786  0.80200812  0.85153893  1
  He  He25  1  0.47957786  0.19799188  0.64846107  1
  He  He26  1  0.02042214  0.19799188  0.14846107  1
  He  He27  1  0.52042214  0.80200812  0.35153893  1
  Li  Li28  1  0.92407304  0.89613903  0.74921508  1
  Li  Li29  1  0.42407304  0.10386097  0.75078492  1
  Li  Li30  1  0.07592696  0.10386097  0.25078492  1
  Li  Li31  1  0.57592696  0.89613903  0.24921508  1
  Be  Be32  1  0.13963588  0.65245709  0.94708310  1
  Be  Be33  1  0.63963588  0.34754291  0.55291690  1
  Be  Be34  1  0.86036412  0.34754291  0.05291690  1
  Be  Be35  1  0.36036412  0.65245709  0.44708310  1
