# generated using pymatgen
data_HHe2
_symmetry_space_group_name_H-M   'P 1'
_cell_length_a   7.40833950
_cell_length_b   7.40833950
_cell_length_c   7.40833950
_cell_angle_alpha   146.32624427
_cell_angle_beta   146.32624427
_cell_angle_gamma   48.36243419
_symmetry_Int_Tables_number   1
_chemical_formula_structural   HHe2
_chemical_formula_sum   'H2 He4'
_cell_volume   124.47421579
_cell_formula_units_Z   2
loop_
 _symmetry_equiv_pos_site_id
 _symmetry_equiv_pos_as_xyz
  1  'x, y, z'
loop_
 _atom_site_type_symbol
 _atom_site_label
 _atom_site_symmetry_multiplicity
 _atom_site_fract_x
 _atom_site_fract_y
 _atom_site_fract_z
 _atom_site_occupancy
  H  H0  1  -0.00000000  0.00000000  -0.00000000  1
  H  H1  1  0.75000000  0.25000000  0.50000000  1
  He  He2  1  0.41472328  0.41472328  0.00000000  1
  He  He3  1  0.16472328  0.66472328  0.50000000  1
  He  He4  1  0.33527672  0.83527672  0.50000000  1
  He  He5  1  0.58527672  0.58527672  -0.00000000  1
