# generated using pymatgen
data_H5He2
_symmetry_space_group_name_H-M   'P 1'
_cell_length_a   4.00711080
_cell_length_b   6.66436305
_cell_length_c   9.36176555
_cell_angle_alpha   82.89916516
_cell_angle_beta   90.00000000
_cell_angle_gamma   90.00000000
_symmetry_Int_Tables_number   1
_chemical_formula_structural   H5He2
_chemical_formula_sum   'H10 He4'
_cell_volume   248.08696165
_cell_formula_units_Z   2
loop_
 _symmetry_equiv_pos_site_id
 _symmetry_equiv_pos_as_xyz
  1  'x, y, z'
loop_
 _atom_site_type_symbol
 _atom_site_label
 _atom_site_symmetry_multiplicity
 _atom_site_fract_x
 _atom_site_fract_y
 _atom_site_fract_z
 _atom_site_occupancy
  H  H0  1  0.00000000  0.71792227  0.43415978  1
  H  H1  1  0.50000000  0.28568974  0.07144493  1
  H  H2  1  0.00000000  0.43026012  0.85999749  1
  H  H3  1  0.00000000  0.14114738  0.28288319  1
  H  H4  1  0.00000000  0.85347374  0.70872773  1
  H  H5  1  0.00000000  0.28569046  0.57144513  1
  H  H6  1  0.50000000  0.71792048  0.93415935  1
  H  H7  1  0.50000000  0.43026116  0.35999845  1
  H  H8  1  0.50000000  0.14114680  0.78288369  1
  H  H9  1  0.50000000  0.85347297  0.20872788  1
  He  He10  1  0.00000000  0.00759788  0.99326484  1
  He  He11  1  0.00000000  0.56380814  0.14957205  1
  He  He12  1  0.50000000  0.00759994  0.49326425  1
  He  He13  1  0.50000000  0.56380892  0.64957125  1
