# generated using pymatgen
data_HHeLi2
_symmetry_space_group_name_H-M   'P 1'
_cell_length_a   2.87701534
_cell_length_b   2.87700028
_cell_length_c   11.38980982
_cell_angle_alpha   90.00000000
_cell_angle_beta   90.00000000
_cell_angle_gamma   120.00017311
_symmetry_Int_Tables_number   1
_chemical_formula_structural   HHeLi2
_chemical_formula_sum   'H2 He2 Li4'
_cell_volume   81.64478084
_cell_formula_units_Z   2
loop_
 _symmetry_equiv_pos_site_id
 _symmetry_equiv_pos_as_xyz
  1  'x, y, z'
loop_
 _atom_site_type_symbol
 _atom_site_label
 _atom_site_symmetry_multiplicity
 _atom_site_fract_x
 _atom_site_fract_y
 _atom_site_fract_z
 _atom_site_occupancy
  H  H0  1  -0.00000000  0.00000000  0.00000000  1
  H  H1  1  0.00000000  -0.00000000  0.50000000  1
  He  He2  1  0.66667700  0.33335399  0.25000000  1
  He  He3  1  0.33332300  0.66664601  0.75000000  1
  Li  Li4  1  0.66668198  0.33336396  0.08516349  1
  Li  Li5  1  0.33331802  0.66663604  0.58516349  1
  Li  Li6  1  0.33331802  0.66663604  0.91483651  1
  Li  Li7  1  0.66668198  0.33336396  0.41483651  1
