# generated using pymatgen
data_HHe5
_symmetry_space_group_name_H-M   'P 1'
_cell_length_a   4.93655025
_cell_length_b   4.93822229
_cell_length_c   4.12942010
_cell_angle_alpha   90.00000000
_cell_angle_beta   90.00000000
_cell_angle_gamma   119.98880014
_symmetry_Int_Tables_number   1
_chemical_formula_structural   HHe5
_chemical_formula_sum   'H1 He5'
_cell_volume   87.18924129
_cell_formula_units_Z   1
loop_
 _symmetry_equiv_pos_site_id
 _symmetry_equiv_pos_as_xyz
  1  'x, y, z'
loop_
 _atom_site_type_symbol
 _atom_site_label
 _atom_site_symmetry_multiplicity
 _atom_site_fract_x
 _atom_site_fract_y
 _atom_site_fract_z
 _atom_site_occupancy
  H  H0  1  -0.00000000  -0.00000000  0.00000000  1
  He  He1  1  0.66662913  0.33325826  0.00000000  1
  He  He2  1  0.33337087  0.66674174  -0.00000000  1
  He  He3  1  0.00000000  0.50000000  0.50000000  1
  He  He4  1  0.50000000  0.50000000  0.50000000  1
  He  He5  1  0.50000000  0.00000000  0.50000000  1
