# generated using pymatgen
data_H3He2(LiBe)2
_symmetry_space_group_name_H-M   'P 1'
_cell_length_a   10.75559558
_cell_length_b   10.75559558
_cell_length_c   10.75559558
_cell_angle_alpha   156.71763697
_cell_angle_beta   156.71763697
_cell_angle_gamma   33.16106727
_symmetry_Int_Tables_number   1
_chemical_formula_structural   H3He2(LiBe)2
_chemical_formula_sum   'H3 He2 Li2 Be2'
_cell_volume   194.21539689
_cell_formula_units_Z   1
loop_
 _symmetry_equiv_pos_site_id
 _symmetry_equiv_pos_as_xyz
  1  'x, y, z'
loop_
 _atom_site_type_symbol
 _atom_site_label
 _atom_site_symmetry_multiplicity
 _atom_site_fract_x
 _atom_site_fract_y
 _atom_site_fract_z
 _atom_site_occupancy
  H  H0  1  0.00000000  0.00000000  0.00000000  1
  H  H1  1  0.75000000  0.25000000  0.50000000  1
  H  H2  1  0.25000000  0.75000000  0.50000000  1
  He  He3  1  0.50000000  -0.00000000  0.50000000  1
  He  He4  1  0.00000000  0.50000000  0.50000000  1
  Li  Li5  1  0.16096919  0.16096919  0.00000000  1
  Li  Li6  1  0.83903081  0.83903081  0.00000000  1
  Be  Be7  1  0.42177438  0.42177438  -0.00000000  1
  Be  Be8  1  0.57822562  0.57822562  -0.00000000  1
