# generated using pymatgen
data_H17He2
_symmetry_space_group_name_H-M   'P 1'
_cell_length_a   6.59384863
_cell_length_b   6.59384863
_cell_length_c   6.59384863
_cell_angle_alpha   82.71110645
_cell_angle_beta   82.71110645
_cell_angle_gamma   82.71110645
_symmetry_Int_Tables_number   1
_chemical_formula_structural   H17He2
_chemical_formula_sum   'H17 He2'
_cell_volume   280.28458868
_cell_formula_units_Z   1
loop_
 _symmetry_equiv_pos_site_id
 _symmetry_equiv_pos_as_xyz
  1  'x, y, z'
loop_
 _atom_site_type_symbol
 _atom_site_label
 _atom_site_symmetry_multiplicity
 _atom_site_fract_x
 _atom_site_fract_y
 _atom_site_fract_z
 _atom_site_occupancy
  H  H0  1  0.00000000  0.50000000  -0.00000000  1
  H  H1  1  0.50000000  -0.00000000  0.00000000  1
  H  H2  1  0.00000000  -0.00000000  0.50000000  1
  H  H3  1  0.69766280  0.00000000  0.30233720  1
  H  H4  1  0.00000000  0.30233720  0.69766280  1
  H  H5  1  0.30233720  0.69766280  -0.00000000  1
  H  H6  1  0.30233720  0.00000000  0.69766280  1
  H  H7  1  -0.00000000  0.69766280  0.30233720  1
  H  H8  1  0.69766280  0.30233720  0.00000000  1
  H  H9  1  0.35516849  0.85583546  0.35516849  1
  H  H10  1  0.85583546  0.35516849  0.35516849  1
  H  H11  1  0.35516849  0.35516849  0.85583546  1
  H  H12  1  0.14416454  0.64483151  0.64483151  1
  H  H13  1  0.64483151  0.14416454  0.64483151  1
  H  H14  1  0.64483151  0.64483151  0.14416454  1
  H  H15  1  0.90004676  0.90004676  0.90004676  1
  H  H16  1  0.09995324  0.09995324  0.09995324  1
  He  He17  1  0.65051231  0.65051231  0.65051231  1
  He  He18  1  0.34948769  0.34948769  0.34948769  1
