# generated using pymatgen
data_H2He3Li
_symmetry_space_group_name_H-M   'P 1'
_cell_length_a   4.98797829
_cell_length_b   4.98797829
_cell_length_c   4.98797829
_cell_angle_alpha   67.63817783
_cell_angle_beta   67.63817783
_cell_angle_gamma   67.63817783
_symmetry_Int_Tables_number   1
_chemical_formula_structural   H2He3Li
_chemical_formula_sum   'H2 He3 Li1'
_cell_volume   102.02707706
_cell_formula_units_Z   1
loop_
 _symmetry_equiv_pos_site_id
 _symmetry_equiv_pos_as_xyz
  1  'x, y, z'
loop_
 _atom_site_type_symbol
 _atom_site_label
 _atom_site_symmetry_multiplicity
 _atom_site_fract_x
 _atom_site_fract_y
 _atom_site_fract_z
 _atom_site_occupancy
  H  H0  1  0.36881017  0.36881017  0.36881017  1
  H  H1  1  0.63118983  0.63118983  0.63118983  1
  He  He2  1  0.00000000  0.50000000  -0.00000000  1
  He  He3  1  -0.00000000  -0.00000000  0.50000000  1
  He  He4  1  0.50000000  0.00000000  0.00000000  1
  Li  Li5  1  -0.00000000  -0.00000000  -0.00000000  1
