# generated using pymatgen
data_HHeLi3Be
_symmetry_space_group_name_H-M   'P 1'
_cell_length_a   3.69589432
_cell_length_b   6.98205919
_cell_length_c   16.01108485
_cell_angle_alpha   90.00000000
_cell_angle_beta   90.00000000
_cell_angle_gamma   90.00000000
_symmetry_Int_Tables_number   1
_chemical_formula_structural   HHeLi3Be
_chemical_formula_sum   'H4 He4 Li12 Be4'
_cell_volume   413.16529081
_cell_formula_units_Z   4
loop_
 _symmetry_equiv_pos_site_id
 _symmetry_equiv_pos_as_xyz
  1  'x, y, z'
loop_
 _atom_site_type_symbol
 _atom_site_label
 _atom_site_symmetry_multiplicity
 _atom_site_fract_x
 _atom_site_fract_y
 _atom_site_fract_z
 _atom_site_occupancy
  H  H0  1  0.75000000  0.92188819  0.16855435  1
  H  H1  1  0.25000000  0.42188819  0.33144565  1
  H  H2  1  0.25000000  0.07811181  0.83144565  1
  H  H3  1  0.75000000  0.57811181  0.66855435  1
  He  He4  1  0.75000000  0.55584936  0.23079884  1
  He  He5  1  0.25000000  0.05584936  0.26920116  1
  He  He6  1  0.25000000  0.44415064  0.76920116  1
  He  He7  1  0.75000000  0.94415064  0.73079884  1
  Li  Li8  1  0.75000000  0.60445429  0.00824987  1
  Li  Li9  1  0.25000000  0.10445429  0.49175013  1
  Li  Li10  1  0.25000000  0.39554571  0.99175013  1
  Li  Li11  1  0.75000000  0.89554571  0.50824987  1
  Li  Li12  1  0.25000000  0.81838932  0.09255513  1
  Li  Li13  1  0.75000000  0.31838932  0.40744487  1
  Li  Li14  1  0.75000000  0.18161068  0.90744487  1
  Li  Li15  1  0.25000000  0.68161068  0.59255513  1
  Li  Li16  1  0.25000000  0.67931009  0.41966094  1
  Li  Li17  1  0.75000000  0.17931009  0.08033906  1
  Li  Li18  1  0.75000000  0.32068991  0.58033906  1
  Li  Li19  1  0.25000000  0.82068991  0.91966094  1
  Be  Be20  1  0.25000000  0.68144389  0.00305563  1
  Be  Be21  1  0.75000000  0.18144389  0.49694437  1
  Be  Be22  1  0.75000000  0.31855611  0.99694437  1
  Be  Be23  1  0.25000000  0.81855611  0.50305563  1
