# generated using pymatgen
data_H3HeLi6Be
_symmetry_space_group_name_H-M   'P 1'
_cell_length_a   6.46325584
_cell_length_b   6.46325584
_cell_length_c   6.46325584
_cell_angle_alpha   91.44163828
_cell_angle_beta   91.44163828
_cell_angle_gamma   91.44163828
_symmetry_Int_Tables_number   1
_chemical_formula_structural   H3HeLi6Be
_chemical_formula_sum   'H6 He2 Li12 Be2'
_cell_volume   269.73318721
_cell_formula_units_Z   2
loop_
 _symmetry_equiv_pos_site_id
 _symmetry_equiv_pos_as_xyz
  1  'x, y, z'
loop_
 _atom_site_type_symbol
 _atom_site_label
 _atom_site_symmetry_multiplicity
 _atom_site_fract_x
 _atom_site_fract_y
 _atom_site_fract_z
 _atom_site_occupancy
  H  H0  1  0.11713854  0.38286146  0.75000000  1
  H  H1  1  0.38286146  0.75000000  0.11713854  1
  H  H2  1  0.75000000  0.11713854  0.38286146  1
  H  H3  1  0.88286146  0.61713854  0.25000000  1
  H  H4  1  0.61713854  0.25000000  0.88286146  1
  H  H5  1  0.25000000  0.88286146  0.61713854  1
  He  He6  1  0.75000000  0.75000000  0.75000000  1
  He  He7  1  0.25000000  0.25000000  0.25000000  1
  Li  Li8  1  0.03696792  0.70005476  0.89900838  1
  Li  Li9  1  0.70005476  0.89900838  0.03696792  1
  Li  Li10  1  0.89900838  0.03696792  0.70005476  1
  Li  Li11  1  0.46303208  0.60099162  0.79994524  1
  Li  Li12  1  0.79994524  0.46303208  0.60099162  1
  Li  Li13  1  0.60099162  0.79994524  0.46303208  1
  Li  Li14  1  0.96303208  0.29994524  0.10099162  1
  Li  Li15  1  0.29994524  0.10099162  0.96303208  1
  Li  Li16  1  0.10099162  0.96303208  0.29994524  1
  Li  Li17  1  0.53696792  0.39900838  0.20005476  1
  Li  Li18  1  0.20005476  0.53696792  0.39900838  1
  Li  Li19  1  0.39900838  0.20005476  0.53696792  1
  Be  Be20  1  0.00000000  0.00000000  0.00000000  1
  Be  Be21  1  0.50000000  0.50000000  0.50000000  1
