# generated using pymatgen
data_HHeLi
_symmetry_space_group_name_H-M   'P 1'
_cell_length_a   7.66781224
_cell_length_b   7.66781224
_cell_length_c   7.66781224
_cell_angle_alpha   148.99097625
_cell_angle_beta   148.99097625
_cell_angle_gamma   44.42458883
_symmetry_Int_Tables_number   1
_chemical_formula_structural   HHeLi
_chemical_formula_sum   'H2 He2 Li2'
_cell_volume   119.29737669
_cell_formula_units_Z   2
loop_
 _symmetry_equiv_pos_site_id
 _symmetry_equiv_pos_as_xyz
  1  'x, y, z'
loop_
 _atom_site_type_symbol
 _atom_site_label
 _atom_site_symmetry_multiplicity
 _atom_site_fract_x
 _atom_site_fract_y
 _atom_site_fract_z
 _atom_site_occupancy
  H  H0  1  0.41236705  0.41236705  0.00000000  1
  H  H1  1  0.66236705  0.16236705  0.50000000  1
  He  He2  1  0.00088655  0.00088655  0.00000000  1
  He  He3  1  0.25088655  0.75088655  0.50000000  1
  Li  Li4  1  0.57944641  0.57944641  0.00000000  1
  Li  Li5  1  0.82944641  0.32944641  0.50000000  1
