# generated using pymatgen
data_HHe3Li
_symmetry_space_group_name_H-M   'P 1'
_cell_length_a   5.92055621
_cell_length_b   5.92055621
_cell_length_c   5.92055621
_cell_angle_alpha   48.20667509
_cell_angle_beta   48.20667509
_cell_angle_gamma   48.20667509
_symmetry_Int_Tables_number   1
_chemical_formula_structural   HHe3Li
_chemical_formula_sum   'H2 He6 Li2'
_cell_volume   105.73077698
_cell_formula_units_Z   2
loop_
 _symmetry_equiv_pos_site_id
 _symmetry_equiv_pos_as_xyz
  1  'x, y, z'
loop_
 _atom_site_type_symbol
 _atom_site_label
 _atom_site_symmetry_multiplicity
 _atom_site_fract_x
 _atom_site_fract_y
 _atom_site_fract_z
 _atom_site_occupancy
  H  H0  1  0.75000000  0.75000000  0.75000000  1
  H  H1  1  0.25000000  0.25000000  0.25000000  1
  He  He2  1  0.46284084  0.03715916  0.75000000  1
  He  He3  1  0.03715916  0.75000000  0.46284084  1
  He  He4  1  0.75000000  0.46284084  0.03715916  1
  He  He5  1  0.53715916  0.96284084  0.25000000  1
  He  He6  1  0.96284084  0.25000000  0.53715916  1
  He  He7  1  0.25000000  0.53715916  0.96284084  1
  Li  Li8  1  -0.00000000  -0.00000000  0.00000000  1
  Li  Li9  1  0.50000000  0.50000000  0.50000000  1
