# generated using pymatgen
data_H7He4Li2
_symmetry_space_group_name_H-M   'P 1'
_cell_length_a   10.81906743
_cell_length_b   10.81906743
_cell_length_c   10.81906743
_cell_angle_alpha   37.80963504
_cell_angle_beta   37.80963504
_cell_angle_gamma   37.80963504
_symmetry_Int_Tables_number   1
_chemical_formula_structural   H7He4Li2
_chemical_formula_sum   'H7 He4 Li2'
_cell_volume   427.07087814
_cell_formula_units_Z   1
loop_
 _symmetry_equiv_pos_site_id
 _symmetry_equiv_pos_as_xyz
  1  'x, y, z'
loop_
 _atom_site_type_symbol
 _atom_site_label
 _atom_site_symmetry_multiplicity
 _atom_site_fract_x
 _atom_site_fract_y
 _atom_site_fract_z
 _atom_site_occupancy
  H  H0  1  0.78876283  0.19468119  0.78876283  1
  H  H1  1  0.78876283  0.78876283  0.19468119  1
  H  H2  1  0.19468119  0.78876283  0.78876283  1
  H  H3  1  0.21123717  0.80531881  0.21123717  1
  H  H4  1  0.80531881  0.21123717  0.21123717  1
  H  H5  1  0.21123717  0.21123717  0.80531881  1
  H  H6  1  -0.00000000  -0.00000000  0.00000000  1
  He  He7  1  0.18611021  0.18611021  0.18611021  1
  He  He8  1  0.81388979  0.81388979  0.81388979  1
  He  He9  1  0.31534402  0.31534402  0.31534402  1
  He  He10  1  0.68465598  0.68465598  0.68465598  1
  Li  Li11  1  0.44980097  0.44980097  0.44980097  1
  Li  Li12  1  0.55019903  0.55019903  0.55019903  1
