# generated using pymatgen
data_H2HeLi
_symmetry_space_group_name_H-M   'P 1'
_cell_length_a   4.20900564
_cell_length_b   4.20900564
_cell_length_c   8.29045491
_cell_angle_alpha   90.00000000
_cell_angle_beta   90.00000000
_cell_angle_gamma   120.00121214
_symmetry_Int_Tables_number   1
_chemical_formula_structural   H2HeLi
_chemical_formula_sum   'H4 He2 Li2'
_cell_volume   127.19285178
_cell_formula_units_Z   2
loop_
 _symmetry_equiv_pos_site_id
 _symmetry_equiv_pos_as_xyz
  1  'x, y, z'
loop_
 _atom_site_type_symbol
 _atom_site_label
 _atom_site_symmetry_multiplicity
 _atom_site_fract_x
 _atom_site_fract_y
 _atom_site_fract_z
 _atom_site_occupancy
  H  H0  1  0.33331864  0.66668136  0.59578239  1
  H  H1  1  0.66668136  0.33331864  0.09578239  1
  H  H2  1  0.66668136  0.33331864  0.40421761  1
  H  H3  1  0.33331864  0.66668136  0.90421761  1
  He  He4  1  -0.00000000  0.00000000  0.00000000  1
  He  He5  1  0.00000000  -0.00000000  0.50000000  1
  Li  Li6  1  0.33331817  0.66668183  0.25000000  1
  Li  Li7  1  0.66668183  0.33331817  0.75000000  1
