# generated using pymatgen
data_HHeLi2
_symmetry_space_group_name_H-M   'P 1'
_cell_length_a   6.58234262
_cell_length_b   6.58234262
_cell_length_c   6.58234262
_cell_angle_alpha   131.76420245
_cell_angle_beta   131.76420245
_cell_angle_gamma   70.60169939
_symmetry_Int_Tables_number   1
_chemical_formula_structural   HHeLi2
_chemical_formula_sum   'H2 He2 Li4'
_cell_volume   155.44979642
_cell_formula_units_Z   2
loop_
 _symmetry_equiv_pos_site_id
 _symmetry_equiv_pos_as_xyz
  1  'x, y, z'
loop_
 _atom_site_type_symbol
 _atom_site_label
 _atom_site_symmetry_multiplicity
 _atom_site_fract_x
 _atom_site_fract_y
 _atom_site_fract_z
 _atom_site_occupancy
  H  H0  1  -0.00000000  0.00000000  0.00000000  1
  H  H1  1  0.25000000  0.75000000  0.50000000  1
  He  He2  1  0.50000000  0.50000000  -0.00000000  1
  He  He3  1  0.75000000  0.25000000  0.50000000  1
  Li  Li4  1  0.62500000  0.12026782  0.99526782  1
  Li  Li5  1  0.12500000  0.62973218  0.00473218  1
  Li  Li6  1  0.37026782  0.37500000  0.49526782  1
  Li  Li7  1  0.87973218  0.87500000  0.50473218  1
