# generated using pymatgen
data_HHe
_symmetry_space_group_name_H-M   'P 1'
_cell_length_a   4.78126717
_cell_length_b   5.79944238
_cell_length_c   6.24197746
_cell_angle_alpha   90.00000000
_cell_angle_beta   90.00000000
_cell_angle_gamma   90.00000000
_symmetry_Int_Tables_number   1
_chemical_formula_structural   HHe
_chemical_formula_sum   'H4 He4'
_cell_volume   173.08181704
_cell_formula_units_Z   4
loop_
 _symmetry_equiv_pos_site_id
 _symmetry_equiv_pos_as_xyz
  1  'x, y, z'
loop_
 _atom_site_type_symbol
 _atom_site_label
 _atom_site_symmetry_multiplicity
 _atom_site_fract_x
 _atom_site_fract_y
 _atom_site_fract_z
 _atom_site_occupancy
  H  H0  1  0.25000000  0.90252899  0.87234116  1
  H  H1  1  0.75000000  0.09747101  0.12765884  1
  H  H2  1  0.25000000  0.40252899  0.12765884  1
  H  H3  1  0.75000000  0.59747101  0.87234116  1
  He  He4  1  0.25000000  0.01932089  0.21852819  1
  He  He5  1  0.75000000  0.98067911  0.78147181  1
  He  He6  1  0.25000000  0.51932089  0.78147181  1
  He  He7  1  0.75000000  0.48067911  0.21852819  1
