# generated using pymatgen
data_H3He
_symmetry_space_group_name_H-M   'P 1'
_cell_length_a   4.90901548
_cell_length_b   4.90901548
_cell_length_c   25.62779158
_cell_angle_alpha   90.00000000
_cell_angle_beta   90.00000000
_cell_angle_gamma   120.00000000
_symmetry_Int_Tables_number   1
_chemical_formula_structural   H3He
_chemical_formula_sum   'H27 He9'
_cell_volume   534.84829772
_cell_formula_units_Z   9
loop_
 _symmetry_equiv_pos_site_id
 _symmetry_equiv_pos_as_xyz
  1  'x, y, z'
loop_
 _atom_site_type_symbol
 _atom_site_label
 _atom_site_symmetry_multiplicity
 _atom_site_fract_x
 _atom_site_fract_y
 _atom_site_fract_z
 _atom_site_occupancy
  H  H0  1  0.49971947  -0.00056105  0.08067093  1
  H  H1  1  0.00056105  0.50028053  0.08067093  1
  H  H2  1  0.49971947  0.50028053  0.08067093  1
  H  H3  1  0.50028053  0.00056105  0.91932907  1
  H  H4  1  0.50028053  0.49971947  0.91932907  1
  H  H5  1  -0.00056105  0.49971947  0.91932907  1
  H  H6  1  0.83288383  0.66576765  0.41373333  1
  H  H7  1  0.33423235  0.16711617  0.41373333  1
  H  H8  1  0.83288383  0.16711617  0.41373333  1
  H  H9  1  0.83384537  0.66769075  0.25260789  1
  H  H10  1  0.83384537  0.16615463  0.25260789  1
  H  H11  1  0.33230925  0.16615463  0.25260789  1
  H  H12  1  0.16615463  0.33230925  0.74739211  1
  H  H13  1  0.66769075  0.83384537  0.74739211  1
  H  H14  1  0.16615463  0.83384537  0.74739211  1
  H  H15  1  0.16711617  0.33423235  0.58626667  1
  H  H16  1  0.16711617  0.83288383  0.58626667  1
  H  H17  1  0.66576765  0.83288383  0.58626667  1
  H  H18  1  -0.00000000  -0.00000000  0.33356294  1
  H  H19  1  0.00000000  0.00000000  0.66643706  1
  H  H20  1  0.33333333  0.66666667  0.66740102  1
  H  H21  1  0.33333333  0.66666667  -0.00023644  1
  H  H22  1  0.66666667  0.33333333  0.00023644  1
  H  H23  1  0.66666667  0.33333333  0.33259898  1
  H  H24  1  0.00000000  -0.00000000  0.50000000  1
  H  H25  1  0.33333333  0.66666667  0.83344534  1
  H  H26  1  0.66666667  0.33333333  0.16655466  1
  He  He27  1  -0.00000000  -0.00000000  0.13599210  1
  He  He28  1  0.00000000  0.00000000  0.86400790  1
  He  He29  1  0.33333333  0.66666667  0.46935407  1
  He  He30  1  0.33333333  0.66666667  0.19709644  1
  He  He31  1  0.66666667  0.33333333  0.80290356  1
  He  He32  1  0.66666667  0.33333333  0.53064593  1
  He  He33  1  0.00000000  0.00000000  0.00000000  1
  He  He34  1  0.33333333  0.66666667  0.33314492  1
  He  He35  1  0.66666667  0.33333333  0.66685508  1
