# generated using pymatgen
data_H7He6Li16
_symmetry_space_group_name_H-M   'P 1'
_cell_length_a   10.48613296
_cell_length_b   10.48613296
_cell_length_c   10.48613296
_cell_angle_alpha   109.47122063
_cell_angle_beta   109.47122063
_cell_angle_gamma   109.47122063
_symmetry_Int_Tables_number   1
_chemical_formula_structural   H7He6Li16
_chemical_formula_sum   'H14 He12 Li32'
_cell_volume   887.61409351
_cell_formula_units_Z   2
loop_
 _symmetry_equiv_pos_site_id
 _symmetry_equiv_pos_as_xyz
  1  'x, y, z'
loop_
 _atom_site_type_symbol
 _atom_site_label
 _atom_site_symmetry_multiplicity
 _atom_site_fract_x
 _atom_site_fract_y
 _atom_site_fract_z
 _atom_site_occupancy
  H  H0  1  0.00000000  0.00000000  0.96555983  1
  H  H1  1  0.53444017  0.03444017  0.53444017  1
  H  H2  1  0.96555983  0.50000000  0.50000000  1
  H  H3  1  0.50000000  0.46555983  0.00000000  1
  H  H4  1  0.00000000  0.00000000  0.46555983  1
  H  H5  1  0.03444017  0.53444017  0.03444017  1
  H  H6  1  0.50000000  0.96555983  0.00000000  1
  H  H7  1  0.46555983  0.50000000  0.50000000  1
  H  H8  1  0.25000000  0.37500000  0.12500000  1
  H  H9  1  0.75000000  0.12500000  0.37500000  1
  H  H10  1  0.12500000  0.75000000  0.87500000  1
  H  H11  1  0.37500000  0.25000000  0.62500000  1
  H  H12  1  0.62500000  0.87500000  0.75000000  1
  H  H13  1  0.87500000  0.62500000  0.25000000  1
  He  He14  1  0.25000000  0.11165882  0.86165882  1
  He  He15  1  0.75000000  0.38834118  0.63834118  1
  He  He16  1  0.86165882  0.75000000  0.61165882  1
  He  He17  1  0.63834118  0.25000000  0.88834118  1
  He  He18  1  0.88834118  0.13834118  0.75000000  1
  He  He19  1  0.61165882  0.36165882  0.25000000  1
  He  He20  1  0.11165882  0.25000000  0.36165882  1
  He  He21  1  0.38834118  0.75000000  0.13834118  1
  He  He22  1  0.75000000  0.86165882  0.11165882  1
  He  He23  1  0.25000000  0.63834118  0.38834118  1
  He  He24  1  0.13834118  0.88834118  0.25000000  1
  He  He25  1  0.36165882  0.61165882  0.75000000  1
  Li  Li26  1  0.09124171  0.90576602  0.88480280  1
  Li  Li27  1  0.52096322  0.20643892  0.61519720  1
  Li  Li28  1  0.97903678  0.59423398  0.68547569  1
  Li  Li29  1  0.40875829  0.29356108  0.81452431  1
  Li  Li30  1  0.81452431  0.90875829  0.79356108  1
  Li  Li31  1  0.68547569  0.47903678  0.09423398  1
  Li  Li32  1  0.61519720  0.02096322  0.70643892  1
  Li  Li33  1  0.88480280  0.59124171  0.40576602  1
  Li  Li34  1  0.09423398  0.18547569  0.97903678  1
  Li  Li35  1  0.79356108  0.31452431  0.40875829  1
  Li  Li36  1  0.40576602  0.38480280  0.09124171  1
  Li  Li37  1  0.70643892  0.11519720  0.52096322  1
  Li  Li38  1  0.90576602  0.09124171  0.38480280  1
  Li  Li39  1  0.20643892  0.52096322  0.11519720  1
  Li  Li40  1  0.59423398  0.97903678  0.18547569  1
  Li  Li41  1  0.29356108  0.40875829  0.31452431  1
  Li  Li42  1  0.90875829  0.81452431  0.29356108  1
  Li  Li43  1  0.47903678  0.68547569  0.59423398  1
  Li  Li44  1  0.02096322  0.61519720  0.20643892  1
  Li  Li45  1  0.59124171  0.88480280  0.90576602  1
  Li  Li46  1  0.18547569  0.09423398  0.47903678  1
  Li  Li47  1  0.31452431  0.79356108  0.90875829  1
  Li  Li48  1  0.38480280  0.40576602  0.59124171  1
  Li  Li49  1  0.11519720  0.70643892  0.02096322  1
  Li  Li50  1  -0.00000000  0.00000000  0.13169813  1
  Li  Li51  1  0.36830187  0.86830187  0.36830187  1
  Li  Li52  1  0.13169813  0.50000000  0.50000000  1
  Li  Li53  1  0.50000000  0.63169813  -0.00000000  1
  Li  Li54  1  0.00000000  0.00000000  0.63169813  1
  Li  Li55  1  0.86830187  0.36830187  0.86830187  1
  Li  Li56  1  0.50000000  0.13169813  0.00000000  1
  Li  Li57  1  0.63169813  0.50000000  0.50000000  1
