# generated using pymatgen
data_H2He4Li11
_symmetry_space_group_name_H-M   'P 1'
_cell_length_a   12.97842916
_cell_length_b   12.97833549
_cell_length_c   12.97839026
_cell_angle_alpha   28.01800524
_cell_angle_beta   28.02140701
_cell_angle_gamma   28.01905414
_symmetry_Int_Tables_number   1
_chemical_formula_structural   H2He4Li11
_chemical_formula_sum   'H4 He8 Li22'
_cell_volume   426.11551415
_cell_formula_units_Z   2
loop_
 _symmetry_equiv_pos_site_id
 _symmetry_equiv_pos_as_xyz
  1  'x, y, z'
loop_
 _atom_site_type_symbol
 _atom_site_label
 _atom_site_symmetry_multiplicity
 _atom_site_fract_x
 _atom_site_fract_y
 _atom_site_fract_z
 _atom_site_occupancy
  H  H0  1  0.32856382  0.32853476  0.32853477  1
  H  H1  1  0.82854614  0.82854405  0.82854832  1
  H  H2  1  0.16871991  0.16874430  0.16867509  1
  H  H3  1  0.66870312  0.66871533  0.66872874  1
  He  He4  1  0.88580774  0.24991403  0.61106543  1
  He  He5  1  0.61112873  0.88575419  0.24991192  1
  He  He6  1  0.24991216  0.61113774  0.88572696  1
  He  He7  1  0.38574996  0.11112839  0.74990347  1
  He  He8  1  0.11107076  0.74989625  0.38582112  1
  He  He9  1  0.74989075  0.38573380  0.11115310  1
  He  He10  1  0.99833391  0.99829316  0.99831770  1
  He  He11  1  0.49833959  0.49831689  0.49829238  1
  Li  Li12  1  0.56623390  0.77099988  0.25534173  1
  Li  Li13  1  0.25533371  0.56621099  0.77102070  1
  Li  Li14  1  0.77098337  0.25532716  0.56626340  1
  Li  Li15  1  0.06624602  0.75531055  0.27097853  1
  Li  Li16  1  0.75530072  0.27097735  0.06624563  1
  Li  Li17  1  0.27094837  0.06628641  0.75528872  1
  Li  Li18  1  0.93509374  0.24469256  0.72611894  1
  Li  Li19  1  0.72614526  0.93506379  0.24470831  1
  Li  Li20  1  0.24470006  0.72611713  0.93509644  1
  Li  Li21  1  0.43511154  0.22610358  0.74465398  1
  Li  Li22  1  0.22611393  0.74467500  0.43508401  1
  Li  Li23  1  0.74465094  0.43513052  0.22609389  1
  Li  Li24  1  0.49638142  0.24919968  0.00312137  1
  Li  Li25  1  0.00298550  0.49650133  0.24920089  1
  Li  Li26  1  0.24918596  0.00293788  0.49654174  1
  Li  Li27  1  0.99647965  0.50296206  0.74917133  1
  Li  Li28  1  0.50307669  0.74916703  0.99634959  1
  Li  Li29  1  0.74917575  0.99652509  0.50292977  1
  Li  Li30  1  0.40681456  0.40683359  0.40680172  1
  Li  Li31  1  0.90680984  0.90684291  0.90684650  1
  Li  Li32  1  0.09303613  0.09300829  0.09300913  1
  Li  Li33  1  0.59302637  0.59301434  0.59305468  1
