# generated using pymatgen
data_H2He
_symmetry_space_group_name_H-M   'P 1'
_cell_length_a   5.40267328
_cell_length_b   5.40267328
_cell_length_c   8.97663399
_cell_angle_alpha   90.00000000
_cell_angle_beta   90.00000000
_cell_angle_gamma   119.97733659
_symmetry_Int_Tables_number   1
_chemical_formula_structural   H2He
_chemical_formula_sum   'H8 He4'
_cell_volume   226.96594301
_cell_formula_units_Z   4
loop_
 _symmetry_equiv_pos_site_id
 _symmetry_equiv_pos_as_xyz
  1  'x, y, z'
loop_
 _atom_site_type_symbol
 _atom_site_label
 _atom_site_symmetry_multiplicity
 _atom_site_fract_x
 _atom_site_fract_y
 _atom_site_fract_z
 _atom_site_occupancy
  H  H0  1  0.00000000  0.00000000  0.00000000  1
  H  H1  1  -0.00000000  -0.00000000  0.50000000  1
  H  H2  1  0.83384685  0.66866400  0.25000000  1
  H  H3  1  0.33133600  0.16615315  0.25000000  1
  H  H4  1  0.83424378  0.16575622  0.25000000  1
  H  H5  1  0.16615315  0.33133600  0.75000000  1
  H  H6  1  0.66866400  0.83384685  0.75000000  1
  H  H7  1  0.16575622  0.83424378  0.75000000  1
  He  He8  1  0.33331349  0.66668651  0.05949035  1
  He  He9  1  0.66668651  0.33331349  0.55949035  1
  He  He10  1  0.66668651  0.33331349  0.94050965  1
  He  He11  1  0.33331349  0.66668651  0.44050965  1
