# generated using pymatgen
data_H6He3Li4
_symmetry_space_group_name_H-M   'P 1'
_cell_length_a   8.58146948
_cell_length_b   8.58146948
_cell_length_c   8.58146948
_cell_angle_alpha   37.29201954
_cell_angle_beta   37.29201954
_cell_angle_gamma   37.29201954
_symmetry_Int_Tables_number   1
_chemical_formula_structural   H6He3Li4
_chemical_formula_sum   'H6 He3 Li4'
_cell_volume   207.96908136
_cell_formula_units_Z   1
loop_
 _symmetry_equiv_pos_site_id
 _symmetry_equiv_pos_as_xyz
  1  'x, y, z'
loop_
 _atom_site_type_symbol
 _atom_site_label
 _atom_site_symmetry_multiplicity
 _atom_site_fract_x
 _atom_site_fract_y
 _atom_site_fract_z
 _atom_site_occupancy
  H  H0  1  0.16616919  0.50000000  0.83383081  1
  H  H1  1  0.50000000  0.83383081  0.16616919  1
  H  H2  1  0.83383081  0.16616919  0.50000000  1
  H  H3  1  0.83383081  0.50000000  0.16616919  1
  H  H4  1  0.50000000  0.16616919  0.83383081  1
  H  H5  1  0.16616919  0.83383081  0.50000000  1
  He  He6  1  0.00000000  0.00000000  0.00000000  1
  He  He7  1  0.88922922  0.88922922  0.88922922  1
  He  He8  1  0.11077078  0.11077078  0.11077078  1
  Li  Li9  1  0.74545008  0.74545008  0.74545008  1
  Li  Li10  1  0.25454992  0.25454992  0.25454992  1
  Li  Li11  1  0.58696404  0.58696404  0.58696404  1
  Li  Li12  1  0.41303596  0.41303596  0.41303596  1
