# generated using pymatgen
data_HHe5
_symmetry_space_group_name_H-M   'P 1'
_cell_length_a   8.79381948
_cell_length_b   8.79370388
_cell_length_c   8.94428011
_cell_angle_alpha   90.00000000
_cell_angle_beta   90.00000000
_cell_angle_gamma   120.00043489
_symmetry_Int_Tables_number   1
_chemical_formula_structural   HHe5
_chemical_formula_sum   'H6 He30'
_cell_volume   598.99542249
_cell_formula_units_Z   6
loop_
 _symmetry_equiv_pos_site_id
 _symmetry_equiv_pos_as_xyz
  1  'x, y, z'
loop_
 _atom_site_type_symbol
 _atom_site_label
 _atom_site_symmetry_multiplicity
 _atom_site_fract_x
 _atom_site_fract_y
 _atom_site_fract_z
 _atom_site_occupancy
  H  H0  1  0.38064109  0.19032218  0.25000000  1
  H  H1  1  0.80968109  0.19032218  0.25000000  1
  H  H2  1  0.80968160  0.61936320  0.25000000  1
  H  H3  1  0.61935891  0.80967782  0.75000000  1
  H  H4  1  0.19031891  0.80967782  0.75000000  1
  H  H5  1  0.19031840  0.38063680  0.75000000  1
  He  He6  1  0.00000000  0.00000000  0.00000000  1
  He  He7  1  0.00000000  0.00000000  0.50000000  1
  He  He8  1  0.66667009  0.33334018  0.01203874  1
  He  He9  1  0.33332991  0.66665982  0.51203874  1
  He  He10  1  0.33332991  0.66665982  0.98796126  1
  He  He11  1  0.66667009  0.33334018  0.48796126  1
  He  He12  1  0.00000000  0.50000000  -0.00000000  1
  He  He13  1  0.50000000  0.50000000  0.00000000  1
  He  He14  1  0.50000000  -0.00000000  -0.00000000  1
  He  He15  1  -0.00000000  0.50000000  0.50000000  1
  He  He16  1  0.50000000  0.50000000  0.50000000  1
  He  He17  1  0.50000000  0.00000000  0.50000000  1
  He  He18  1  0.13580584  0.56790268  0.25000000  1
  He  He19  1  0.43209684  0.56790268  0.25000000  1
  He  He20  1  0.43209544  0.86419088  0.25000000  1
  He  He21  1  0.86419416  0.43209732  0.75000000  1
  He  He22  1  0.56790316  0.43209732  0.75000000  1
  He  He23  1  0.56790456  0.13580912  0.75000000  1
  He  He24  1  0.67718292  0.83859278  0.09212682  1
  He  He25  1  0.16140986  0.83859278  0.09212682  1
  He  He26  1  0.16140613  0.32281225  0.09213132  1
  He  He27  1  0.32281708  0.16140722  0.59212682  1
  He  He28  1  0.83859014  0.16140722  0.59212682  1
  He  He29  1  0.83859387  0.67718775  0.59213132  1
  He  He30  1  0.83859014  0.16140722  0.90787318  1
  He  He31  1  0.32281708  0.16140722  0.90787318  1
  He  He32  1  0.83859387  0.67718775  0.90786868  1
  He  He33  1  0.16140986  0.83859278  0.40787318  1
  He  He34  1  0.67718292  0.83859278  0.40787318  1
  He  He35  1  0.16140613  0.32281225  0.40786868  1
