# generated using pymatgen
data_H6He(Li5Be)2
_symmetry_space_group_name_H-M   'P 1'
_cell_length_a   6.63552333
_cell_length_b   5.41819071
_cell_length_c   12.53407755
_cell_angle_alpha   80.28940316
_cell_angle_beta   90.00000000
_cell_angle_gamma   90.00000000
_symmetry_Int_Tables_number   1
_chemical_formula_structural   H6He(Li5Be)2
_chemical_formula_sum   'H12 He2 Li20 Be4'
_cell_volume   444.17528865
_cell_formula_units_Z   2
loop_
 _symmetry_equiv_pos_site_id
 _symmetry_equiv_pos_as_xyz
  1  'x, y, z'
loop_
 _atom_site_type_symbol
 _atom_site_label
 _atom_site_symmetry_multiplicity
 _atom_site_fract_x
 _atom_site_fract_y
 _atom_site_fract_z
 _atom_site_occupancy
  H  H0  1  0.84619307  0.49448844  0.32146056  1
  H  H1  1  0.34619307  0.50551156  0.67853944  1
  H  H2  1  0.19935190  0.38293821  0.45098021  1
  H  H3  1  0.69935190  0.61706179  0.54901979  1
  H  H4  1  0.20701348  0.83613838  0.71317586  1
  H  H5  1  0.70701348  0.16386162  0.28682414  1
  H  H6  1  0.18515296  0.02605650  0.40041696  1
  H  H7  1  0.68515296  0.97394350  0.59958304  1
  H  H8  1  0.36789448  0.86684953  0.61765200  1
  H  H9  1  0.86789448  0.13315047  0.38234800  1
  H  H10  1  0.62669322  0.02675477  0.47573471  1
  H  H11  1  0.12669322  0.97324523  0.52426529  1
  He  He12  1  0.24527482  0.19432301  0.12637623  1
  He  He13  1  0.74527482  0.80567699  0.87362377  1
  Li  Li14  1  0.24206622  0.93470115  0.02757365  1
  Li  Li15  1  0.74206622  0.06529885  0.97242635  1
  Li  Li16  1  0.05928470  0.80716467  0.86744297  1
  Li  Li17  1  0.55928470  0.19283533  0.13255703  1
  Li  Li18  1  0.43474401  0.80737523  0.87175437  1
  Li  Li19  1  0.93474401  0.19262477  0.12824563  1
  Li  Li20  1  0.24457601  0.48465902  0.00153207  1
  Li  Li21  1  0.74457601  0.51534098  0.99846793  1
  Li  Li22  1  0.23826717  0.90638350  0.26618467  1
  Li  Li23  1  0.73826717  0.09361650  0.73381533  1
  Li  Li24  1  0.23385326  0.44734969  0.23440969  1
  Li  Li25  1  0.73385326  0.55265031  0.76559031  1
  Li  Li26  1  0.92427994  0.65708288  0.30182473  1
  Li  Li27  1  0.42427994  0.34291712  0.69817527  1
  Li  Li28  1  0.23972992  0.56152215  0.42177773  1
  Li  Li29  1  0.73972992  0.43847785  0.57822227  1
  Li  Li30  1  0.24040543  0.78241499  0.64414024  1
  Li  Li31  1  0.74040543  0.21758501  0.35585976  1
  Li  Li32  1  0.60888532  0.90508246  0.54380280  1
  Li  Li33  1  0.10888532  0.09491754  0.45619720  1
  Be  Be34  1  0.24520705  0.75877575  0.94288812  1
  Be  Be35  1  0.74520705  0.24122425  0.05711188  1
  Be  Be36  1  0.16112704  0.63889592  0.30189783  1
  Be  Be37  1  0.66112704  0.36110408  0.69810217  1
