# generated using pymatgen
data_HHe3Li
_symmetry_space_group_name_H-M   'P 1'
_cell_length_a   6.25054937
_cell_length_b   6.25054937
_cell_length_c   6.25054937
_cell_angle_alpha   109.39758699
_cell_angle_beta   109.39758699
_cell_angle_gamma   109.61858851
_symmetry_Int_Tables_number   1
_chemical_formula_structural   HHe3Li
_chemical_formula_sum   'H4 He12 Li4'
_cell_volume   187.98817171
_cell_formula_units_Z   4
loop_
 _symmetry_equiv_pos_site_id
 _symmetry_equiv_pos_as_xyz
  1  'x, y, z'
loop_
 _atom_site_type_symbol
 _atom_site_label
 _atom_site_symmetry_multiplicity
 _atom_site_fract_x
 _atom_site_fract_y
 _atom_site_fract_z
 _atom_site_occupancy
  H  H0  1  0.00000000  0.00000000  0.00000000  1
  H  H1  1  0.50000000  0.50000000  -0.00000000  1
  H  H2  1  0.50000000  0.00000000  0.50000000  1
  H  H3  1  0.00000000  0.50000000  0.50000000  1
  He  He4  1  0.76123167  0.23876833  0.00000000  1
  He  He5  1  0.23876833  0.76123167  0.00000000  1
  He  He6  1  0.76123167  0.76123167  0.52246334  1
  He  He7  1  0.23876833  0.23876833  0.47753666  1
  He  He8  1  0.48843638  0.73864739  0.74978899  1
  He  He9  1  0.98885840  0.73864739  0.25021101  1
  He  He10  1  0.73864739  0.48843638  0.74978899  1
  He  He11  1  0.73864739  0.98885840  0.25021101  1
  He  He12  1  0.01114160  0.26135261  0.74978899  1
  He  He13  1  0.51156362  0.26135261  0.25021101  1
  He  He14  1  0.26135261  0.51156362  0.25021101  1
  He  He15  1  0.26135261  0.01114160  0.74978899  1
  Li  Li16  1  0.50000000  -0.00000000  0.00000000  1
  Li  Li17  1  -0.00000000  0.50000000  -0.00000000  1
  Li  Li18  1  0.50000000  0.50000000  0.50000000  1
  Li  Li19  1  -0.00000000  0.00000000  0.50000000  1
