# generated using pymatgen
data_H2HeLi2
_symmetry_space_group_name_H-M   'P 1'
_cell_length_a   5.81004222
_cell_length_b   5.81004222
_cell_length_c   5.81004222
_cell_angle_alpha   138.00389981
_cell_angle_beta   138.00389981
_cell_angle_gamma   60.89702589
_symmetry_Int_Tables_number   1
_chemical_formula_structural   H2HeLi2
_chemical_formula_sum   'H2 He1 Li2'
_cell_volume   86.84187781
_cell_formula_units_Z   1
loop_
 _symmetry_equiv_pos_site_id
 _symmetry_equiv_pos_as_xyz
  1  'x, y, z'
loop_
 _atom_site_type_symbol
 _atom_site_label
 _atom_site_symmetry_multiplicity
 _atom_site_fract_x
 _atom_site_fract_y
 _atom_site_fract_z
 _atom_site_occupancy
  H  H0  1  0.36322088  0.36322088  -0.00000000  1
  H  H1  1  0.63677912  0.63677912  0.00000000  1
  He  He2  1  0.00000000  0.00000000  0.00000000  1
  Li  Li3  1  0.25000000  0.75000000  0.50000000  1
  Li  Li4  1  0.75000000  0.25000000  0.50000000  1
