# generated using pymatgen
data_HHe2
_symmetry_space_group_name_H-M   'P 1'
_cell_length_a   2.96859640
_cell_length_b   5.58039823
_cell_length_c   10.14460900
_cell_angle_alpha   90.00000000
_cell_angle_beta   90.00000000
_cell_angle_gamma   90.00000000
_symmetry_Int_Tables_number   1
_chemical_formula_structural   HHe2
_chemical_formula_sum   'H4 He8'
_cell_volume   168.05508627
_cell_formula_units_Z   4
loop_
 _symmetry_equiv_pos_site_id
 _symmetry_equiv_pos_as_xyz
  1  'x, y, z'
loop_
 _atom_site_type_symbol
 _atom_site_label
 _atom_site_symmetry_multiplicity
 _atom_site_fract_x
 _atom_site_fract_y
 _atom_site_fract_z
 _atom_site_occupancy
  H  H0  1  0.25000000  0.40195735  0.89814480  1
  H  H1  1  0.75000000  0.09804265  0.39814480  1
  H  H2  1  0.75000000  0.59804265  0.10185520  1
  H  H3  1  0.25000000  0.90195735  0.60185520  1
  He  He4  1  0.25000000  0.82506325  0.93509273  1
  He  He5  1  0.75000000  0.67493675  0.43509273  1
  He  He6  1  0.75000000  0.17493675  0.06490727  1
  He  He7  1  0.25000000  0.32506325  0.56490727  1
  He  He8  1  0.25000000  0.85279477  0.21348677  1
  He  He9  1  0.75000000  0.64720523  0.71348677  1
  He  He10  1  0.75000000  0.14720523  0.78651323  1
  He  He11  1  0.25000000  0.35279477  0.28651323  1
