# generated using pymatgen
data_H5He
_symmetry_space_group_name_H-M   'P 1'
_cell_length_a   9.74520467
_cell_length_b   9.74520467
_cell_length_c   7.61659694
_cell_angle_alpha   90.00000000
_cell_angle_beta   90.00000000
_cell_angle_gamma   90.00000000
_symmetry_Int_Tables_number   1
_chemical_formula_structural   H5He
_chemical_formula_sum   'H20 He4'
_cell_volume   723.34070225
_cell_formula_units_Z   4
loop_
 _symmetry_equiv_pos_site_id
 _symmetry_equiv_pos_as_xyz
  1  'x, y, z'
loop_
 _atom_site_type_symbol
 _atom_site_label
 _atom_site_symmetry_multiplicity
 _atom_site_fract_x
 _atom_site_fract_y
 _atom_site_fract_z
 _atom_site_occupancy
  H  H0  1  0.29707230  0.59293487  0.14914349  1
  H  H1  1  0.20292770  0.90706513  0.14914349  1
  H  H2  1  0.90706513  0.29707230  0.14914349  1
  H  H3  1  0.59293487  0.20292770  0.14914349  1
  H  H4  1  0.70292770  0.40706513  0.85085651  1
  H  H5  1  0.79707230  0.09293487  0.85085651  1
  H  H6  1  0.09293487  0.70292770  0.85085651  1
  H  H7  1  0.40706513  0.79707230  0.85085651  1
  H  H8  1  0.25000000  0.25000000  0.90360562  1
  H  H9  1  0.75000000  0.75000000  0.09639438  1
  H  H10  1  0.25000000  0.25000000  0.33181006  1
  H  H11  1  0.75000000  0.75000000  0.66818994  1
  H  H12  1  0.33846178  0.45428746  0.61731376  1
  H  H13  1  0.16153822  0.04571254  0.61731376  1
  H  H14  1  0.04571254  0.33846178  0.61731376  1
  H  H15  1  0.45428746  0.16153822  0.61731376  1
  H  H16  1  0.66153822  0.54571254  0.38268624  1
  H  H17  1  0.83846178  0.95428746  0.38268624  1
  H  H18  1  0.95428746  0.66153822  0.38268624  1
  H  H19  1  0.54571254  0.83846178  0.38268624  1
  He  He20  1  0.75000000  0.25000000  0.00000000  1
  He  He21  1  0.25000000  0.75000000  -0.00000000  1
  He  He22  1  0.25000000  0.25000000  0.62060476  1
  He  He23  1  0.75000000  0.75000000  0.37939524  1
