# generated using pymatgen
data_H4He4Li4Be
_symmetry_space_group_name_H-M   'P 1'
_cell_length_a   9.28240381
_cell_length_b   9.28240381
_cell_length_c   7.63891361
_cell_angle_alpha   81.75797988
_cell_angle_beta   81.75797988
_cell_angle_gamma   83.97996317
_symmetry_Int_Tables_number   1
_chemical_formula_structural   H4He4Li4Be
_chemical_formula_sum   'H8 He8 Li8 Be2'
_cell_volume   642.27195127
_cell_formula_units_Z   2
loop_
 _symmetry_equiv_pos_site_id
 _symmetry_equiv_pos_as_xyz
  1  'x, y, z'
loop_
 _atom_site_type_symbol
 _atom_site_label
 _atom_site_symmetry_multiplicity
 _atom_site_fract_x
 _atom_site_fract_y
 _atom_site_fract_z
 _atom_site_occupancy
  H  H0  1  0.79339947  0.30558801  0.55255928  1
  H  H1  1  0.30558801  0.79339947  0.05255928  1
  H  H2  1  0.04657090  0.57226145  0.43776227  1
  H  H3  1  0.57226145  0.04657090  0.93776227  1
  H  H4  1  0.28654108  0.32515582  0.19807124  1
  H  H5  1  0.32515582  0.28654108  0.69807124  1
  H  H6  1  0.04026727  0.05604351  0.32547225  1
  H  H7  1  0.05604351  0.04026727  0.82547225  1
  He  He8  1  0.95864208  0.37554832  0.15756115  1
  He  He9  1  0.37554832  0.95864208  0.65756115  1
  He  He10  1  0.66821453  0.38873987  0.15034924  1
  He  He11  1  0.38873987  0.66821453  0.65034924  1
  He  He12  1  0.70245823  0.65594960  0.24151475  1
  He  He13  1  0.65594960  0.70245823  0.74151475  1
  He  He14  1  0.95324426  0.65646486  0.00675943  1
  He  He15  1  0.65646486  0.95324426  0.50675943  1
  Li  Li16  1  0.82094482  0.29888777  0.10025476  1
  Li  Li17  1  0.29888777  0.82094482  0.60025476  1
  Li  Li18  1  0.60083297  0.53031054  0.22980365  1
  Li  Li19  1  0.53031054  0.60083297  0.72980365  1
  Li  Li20  1  0.82736665  0.74268194  0.11752804  1
  Li  Li21  1  0.74268194  0.82736665  0.61752804  1
  Li  Li22  1  0.03050081  0.49660112  0.99419916  1
  Li  Li23  1  0.49660112  0.03050081  0.49419916  1
  Be  Be24  1  0.05111827  0.30644588  0.41101479  1
  Be  Be25  1  0.30644588  0.05111827  0.91101479  1
