# generated using pymatgen
data_H2He
_symmetry_space_group_name_H-M   'P 1'
_cell_length_a   8.81018523
_cell_length_b   8.81016944
_cell_length_c   8.80912627
_cell_angle_alpha   109.46870076
_cell_angle_beta   109.46971786
_cell_angle_gamma   109.47377141
_symmetry_Int_Tables_number   1
_chemical_formula_structural   H2He
_chemical_formula_sum   'H24 He12'
_cell_volume   526.36636814
_cell_formula_units_Z   12
loop_
 _symmetry_equiv_pos_site_id
 _symmetry_equiv_pos_as_xyz
  1  'x, y, z'
loop_
 _atom_site_type_symbol
 _atom_site_label
 _atom_site_symmetry_multiplicity
 _atom_site_fract_x
 _atom_site_fract_y
 _atom_site_fract_z
 _atom_site_occupancy
  H  H0  1  0.51229873  0.11737371  0.40599930  1
  H  H1  1  0.98699663  0.39305760  0.60507474  1
  H  H2  1  0.21133670  0.10624222  0.09393203  1
  H  H3  1  0.28798441  0.38193472  0.89491306  1
  H  H4  1  0.60474235  0.48706235  0.89337749  1
  H  H5  1  0.40581172  0.01239787  0.61781365  1
  H  H6  1  0.89457546  0.78798488  0.88230258  1
  H  H7  1  0.09358424  0.71132244  0.60657554  1
  H  H8  1  0.88199000  0.39459148  0.28827864  1
  H  H9  1  0.60625744  0.59356545  0.21168692  1
  H  H10  1  0.89307580  0.10474514  0.98734999  1
  H  H11  1  0.61744243  0.90576287  0.51267160  1
  H  H12  1  0.74965652  0.83106741  0.08143066  1
  H  H13  1  0.24970820  0.66837132  0.41861824  1
  H  H14  1  0.08106495  0.24965321  0.33140109  1
  H  H15  1  0.41830974  0.74964713  0.16859952  1
  H  H16  1  0.16828645  0.91828147  0.25003606  1
  H  H17  1  0.33101770  0.58104377  0.74996344  1
  H  H18  1  0.74963254  0.07370868  0.32397109  1
  H  H19  1  0.24967667  0.42563848  0.17599399  1
  H  H20  1  0.32371987  0.24968960  0.57402551  1
  H  H21  1  0.17560567  0.74964171  0.92598406  1
  H  H22  1  0.92561913  0.67561852  0.24995789  1
  H  H23  1  0.57370189  0.82370638  0.75003190  1
  He  He24  1  0.57814526  0.96208088  0.34824366  1
  He  He25  1  0.92120054  0.26947528  0.38391788  1
  He  He26  1  0.11380103  0.22984528  0.15172730  1
  He  He27  1  0.38553761  0.53724367  0.11607414  1
  He  He28  1  0.38359476  0.42120760  0.76976995  1
  He  He29  1  0.34797054  0.07815722  0.46242799  1
  He  He30  1  0.11571980  0.88551816  0.03760778  1
  He  He31  1  0.15136194  0.61377992  0.73018645  1
  He  He32  1  0.03728496  0.61574167  0.38584385  1
  He  He33  1  0.72986249  0.65139376  0.11414191  1
  He  He34  1  0.76946888  0.88361499  0.92155756  1
  He  He35  1  0.46211696  0.84799756  0.57850818  1
