# generated using pymatgen
data_HHe3Li(Be4B)2
_symmetry_space_group_name_H-M   'P 1'
_cell_length_a   6.35825957
_cell_length_b   7.02201026
_cell_length_c   9.52952999
_cell_angle_alpha   90.00000000
_cell_angle_beta   90.00000000
_cell_angle_gamma   90.00000000
_symmetry_Int_Tables_number   1
_chemical_formula_structural   HHe3Li(Be4B)2
_chemical_formula_sum   'H2 He6 Li2 Be16 B4'
_cell_volume   425.47220498
_cell_formula_units_Z   2
loop_
 _symmetry_equiv_pos_site_id
 _symmetry_equiv_pos_as_xyz
  1  'x, y, z'
loop_
 _atom_site_type_symbol
 _atom_site_label
 _atom_site_symmetry_multiplicity
 _atom_site_fract_x
 _atom_site_fract_y
 _atom_site_fract_z
 _atom_site_occupancy
  H  H0  1  0.75000000  0.14851884  0.75000000  1
  H  H1  1  0.25000000  0.85148116  0.25000000  1
  He  He2  1  0.00000000  0.00000000  0.00000000  1
  He  He3  1  0.50000000  0.00000000  0.50000000  1
  He  He4  1  0.00000000  0.00000000  0.50000000  1
  He  He5  1  0.50000000  0.00000000  0.00000000  1
  He  He6  1  0.75000000  0.79501704  0.25000000  1
  He  He7  1  0.25000000  0.20498296  0.75000000  1
  Li  Li8  1  0.75000000  0.26300561  0.25000000  1
  Li  Li9  1  0.25000000  0.73699439  0.75000000  1
  Be  Be10  1  0.75000000  0.99853272  0.11216639  1
  Be  Be11  1  0.75000000  0.99853272  0.38783361  1
  Be  Be12  1  0.25000000  0.00146728  0.61216639  1
  Be  Be13  1  0.25000000  0.00146728  0.88783361  1
  Be  Be14  1  0.96314852  0.73876367  0.58936763  1
  Be  Be15  1  0.53685148  0.73876367  0.91063237  1
  Be  Be16  1  0.03685148  0.26123633  0.08936763  1
  Be  Be17  1  0.46314852  0.26123633  0.41063237  1
  Be  Be18  1  0.03685148  0.26123633  0.41063237  1
  Be  Be19  1  0.46314852  0.26123633  0.08936763  1
  Be  Be20  1  0.96314852  0.73876367  0.91063237  1
  Be  Be21  1  0.53685148  0.73876367  0.58936763  1
  Be  Be22  1  0.75000000  0.57360110  0.12050901  1
  Be  Be23  1  0.75000000  0.57360110  0.37949099  1
  Be  Be24  1  0.25000000  0.42639890  0.62050901  1
  Be  Be25  1  0.25000000  0.42639890  0.87949099  1
  B  B26  1  0.75000000  0.58889038  0.56089827  1
  B  B27  1  0.75000000  0.58889038  0.93910173  1
  B  B28  1  0.25000000  0.41110962  0.06089827  1
  B  B29  1  0.25000000  0.41110962  0.43910173  1
