# generated using pymatgen
data_H4He2Li
_symmetry_space_group_name_H-M   'P 1'
_cell_length_a   7.36000013
_cell_length_b   7.56194749
_cell_length_c   12.91102311
_cell_angle_alpha   90.00000000
_cell_angle_beta   90.00000000
_cell_angle_gamma   90.00000000
_symmetry_Int_Tables_number   1
_chemical_formula_structural   H4He2Li
_chemical_formula_sum   'H16 He8 Li4'
_cell_volume   718.57505772
_cell_formula_units_Z   4
loop_
 _symmetry_equiv_pos_site_id
 _symmetry_equiv_pos_as_xyz
  1  'x, y, z'
loop_
 _atom_site_type_symbol
 _atom_site_label
 _atom_site_symmetry_multiplicity
 _atom_site_fract_x
 _atom_site_fract_y
 _atom_site_fract_z
 _atom_site_occupancy
  H  H0  1  0.04445249  0.01294766  0.17457500  1
  H  H1  1  0.45554751  0.98705234  0.67457500  1
  H  H2  1  0.95554751  0.51294766  0.82542500  1
  H  H3  1  0.54445249  0.48705234  0.32542500  1
  H  H4  1  0.95554751  0.98705234  0.82542500  1
  H  H5  1  0.54445249  0.01294766  0.32542500  1
  H  H6  1  0.04445249  0.48705234  0.17457500  1
  H  H7  1  0.45554751  0.51294766  0.67457500  1
  H  H8  1  0.90772605  0.25000000  0.53946391  1
  H  H9  1  0.59227395  0.75000000  0.03946391  1
  H  H10  1  0.09227395  0.75000000  0.46053609  1
  H  H11  1  0.40772605  0.25000000  0.96053609  1
  H  H12  1  0.38676503  0.25000000  0.42262861  1
  H  H13  1  0.11323497  0.75000000  0.92262861  1
  H  H14  1  0.61323497  0.75000000  0.57737139  1
  H  H15  1  0.88676503  0.25000000  0.07737139  1
  He  He16  1  0.40694446  0.02469809  0.12986413  1
  He  He17  1  0.09305554  0.97530191  0.62986413  1
  He  He18  1  0.59305554  0.52469809  0.87013587  1
  He  He19  1  0.90694446  0.47530191  0.37013587  1
  He  He20  1  0.59305554  0.97530191  0.87013587  1
  He  He21  1  0.90694446  0.02469809  0.37013587  1
  He  He22  1  0.40694446  0.47530191  0.12986413  1
  He  He23  1  0.09305554  0.52469809  0.62986413  1
  Li  Li24  1  0.58067991  0.25000000  0.58184844  1
  Li  Li25  1  0.91932009  0.75000000  0.08184844  1
  Li  Li26  1  0.41932009  0.75000000  0.41815156  1
  Li  Li27  1  0.08067991  0.25000000  0.91815156  1
