# generated using pymatgen
data_H4He23
_symmetry_space_group_name_H-M   'P 1'
_cell_length_a   10.23785630
_cell_length_b   10.23785630
_cell_length_c   10.23785630
_cell_angle_alpha   90.00000000
_cell_angle_beta   90.00000000
_cell_angle_gamma   90.00000000
_symmetry_Int_Tables_number   1
_chemical_formula_structural   H4He23
_chemical_formula_sum   'H8 He46'
_cell_volume   1073.06761518
_cell_formula_units_Z   2
loop_
 _symmetry_equiv_pos_site_id
 _symmetry_equiv_pos_as_xyz
  1  'x, y, z'
loop_
 _atom_site_type_symbol
 _atom_site_label
 _atom_site_symmetry_multiplicity
 _atom_site_fract_x
 _atom_site_fract_y
 _atom_site_fract_z
 _atom_site_occupancy
  H  H0  1  0.00000000  0.00000000  0.00000000  1
  H  H1  1  0.50000000  0.50000000  0.50000000  1
  H  H2  1  0.75000000  0.50000000  0.00000000  1
  H  H3  1  0.25000000  0.50000000  0.00000000  1
  H  H4  1  0.00000000  0.75000000  0.50000000  1
  H  H5  1  0.00000000  0.25000000  0.50000000  1
  H  H6  1  0.50000000  0.00000000  0.25000000  1
  H  H7  1  0.50000000  0.00000000  0.75000000  1
  He  He8  1  0.75000000  0.00000000  0.50000000  1
  He  He9  1  0.25000000  0.00000000  0.50000000  1
  He  He10  1  0.50000000  0.75000000  0.00000000  1
  He  He11  1  0.50000000  0.25000000  0.00000000  1
  He  He12  1  0.00000000  0.50000000  0.25000000  1
  He  He13  1  0.00000000  0.50000000  0.75000000  1
  He  He14  1  0.81589876  0.81589876  0.18410124  1
  He  He15  1  0.18410124  0.18410124  0.18410124  1
  He  He16  1  0.18410124  0.81589876  0.81589876  1
  He  He17  1  0.81589876  0.18410124  0.81589876  1
  He  He18  1  0.31589876  0.31589876  0.31589876  1
  He  He19  1  0.68410124  0.68410124  0.31589876  1
  He  He20  1  0.31589876  0.68410124  0.68410124  1
  He  He21  1  0.68410124  0.31589876  0.68410124  1
  He  He22  1  0.18410124  0.18410124  0.81589876  1
  He  He23  1  0.81589876  0.81589876  0.81589876  1
  He  He24  1  0.81589876  0.18410124  0.18410124  1
  He  He25  1  0.18410124  0.81589876  0.18410124  1
  He  He26  1  0.68410124  0.68410124  0.68410124  1
  He  He27  1  0.31589876  0.31589876  0.68410124  1
  He  He28  1  0.68410124  0.31589876  0.31589876  1
  He  He29  1  0.31589876  0.68410124  0.31589876  1
  He  He30  1  0.00000000  0.69226357  0.11723855  1
  He  He31  1  0.00000000  0.30773643  0.11723855  1
  He  He32  1  0.00000000  0.69226357  0.88276145  1
  He  He33  1  0.00000000  0.30773643  0.88276145  1
  He  He34  1  0.88276145  0.00000000  0.30773643  1
  He  He35  1  0.88276145  0.00000000  0.69226357  1
  He  He36  1  0.11723855  0.00000000  0.30773643  1
  He  He37  1  0.11723855  0.00000000  0.69226357  1
  He  He38  1  0.69226357  0.88276145  0.00000000  1
  He  He39  1  0.30773643  0.88276145  0.00000000  1
  He  He40  1  0.69226357  0.11723855  0.00000000  1
  He  He41  1  0.30773643  0.11723855  0.00000000  1
  He  He42  1  0.19226357  0.50000000  0.38276145  1
  He  He43  1  0.80773643  0.50000000  0.38276145  1
  He  He44  1  0.19226357  0.50000000  0.61723855  1
  He  He45  1  0.80773643  0.50000000  0.61723855  1
  He  He46  1  0.50000000  0.38276145  0.19226357  1
  He  He47  1  0.50000000  0.38276145  0.80773643  1
  He  He48  1  0.50000000  0.61723855  0.19226357  1
  He  He49  1  0.50000000  0.61723855  0.80773643  1
  He  He50  1  0.38276145  0.19226357  0.50000000  1
  He  He51  1  0.38276145  0.80773643  0.50000000  1
  He  He52  1  0.61723855  0.19226357  0.50000000  1
  He  He53  1  0.61723855  0.80773643  0.50000000  1
