# generated using pymatgen
data_H8HeLi4
_symmetry_space_group_name_H-M   'P 1'
_cell_length_a   6.82943527
_cell_length_b   6.82943527
_cell_length_c   6.82943527
_cell_angle_alpha   98.18692327
_cell_angle_beta   98.18692327
_cell_angle_gamma   135.65909527
_symmetry_Int_Tables_number   1
_chemical_formula_structural   H8HeLi4
_chemical_formula_sum   'H8 He1 Li4'
_cell_volume   206.17083487
_cell_formula_units_Z   1
loop_
 _symmetry_equiv_pos_site_id
 _symmetry_equiv_pos_as_xyz
  1  'x, y, z'
loop_
 _atom_site_type_symbol
 _atom_site_label
 _atom_site_symmetry_multiplicity
 _atom_site_fract_x
 _atom_site_fract_y
 _atom_site_fract_z
 _atom_site_occupancy
  H  H0  1  0.50000000  0.72260982  0.22260982  1
  H  H1  1  0.50000000  0.27739018  0.77739018  1
  H  H2  1  0.27739018  0.50000000  0.77739018  1
  H  H3  1  0.72260982  0.50000000  0.22260982  1
  H  H4  1  0.00000000  0.65579792  0.65579792  1
  H  H5  1  -0.00000000  0.34420208  0.34420208  1
  H  H6  1  0.34420208  -0.00000000  0.34420208  1
  H  H7  1  0.65579792  0.00000000  0.65579792  1
  He  He8  1  0.00000000  0.00000000  -0.00000000  1
  Li  Li9  1  0.00000000  0.50000000  0.00000000  1
  Li  Li10  1  0.50000000  -0.00000000  -0.00000000  1
  Li  Li11  1  0.00000000  -0.00000000  0.50000000  1
  Li  Li12  1  0.50000000  0.50000000  0.50000000  1
