# generated using pymatgen
data_H2He2LiBe
_symmetry_space_group_name_H-M   'P 1'
_cell_length_a   13.31576279
_cell_length_b   5.08863489
_cell_length_c   5.33874442
_cell_angle_alpha   64.93092851
_cell_angle_beta   90.00000000
_cell_angle_gamma   90.00000000
_symmetry_Int_Tables_number   1
_chemical_formula_structural   H2He2LiBe
_chemical_formula_sum   'H8 He8 Li4 Be4'
_cell_volume   327.67074046
_cell_formula_units_Z   4
loop_
 _symmetry_equiv_pos_site_id
 _symmetry_equiv_pos_as_xyz
  1  'x, y, z'
loop_
 _atom_site_type_symbol
 _atom_site_label
 _atom_site_symmetry_multiplicity
 _atom_site_fract_x
 _atom_site_fract_y
 _atom_site_fract_z
 _atom_site_occupancy
  H  H0  1  0.91498944  0.58536769  0.19686174  1
  H  H1  1  0.41498944  0.91463231  0.80313826  1
  H  H2  1  0.08501056  0.41463231  0.80313826  1
  H  H3  1  0.58501056  0.08536769  0.19686174  1
  H  H4  1  0.82831268  0.03515613  0.05301123  1
  H  H5  1  0.32831268  0.46484387  0.94698877  1
  H  H6  1  0.17168732  0.96484387  0.94698877  1
  H  H7  1  0.67168732  0.53515613  0.05301123  1
  He  He8  1  0.86950454  0.67336203  0.74794825  1
  He  He9  1  0.36950454  0.82663797  0.25205175  1
  He  He10  1  0.13049546  0.32663797  0.25205175  1
  He  He11  1  0.63049546  0.17336203  0.74794825  1
  He  He12  1  0.77353884  0.60983554  0.56950093  1
  He  He13  1  0.27353884  0.89016446  0.43049907  1
  He  He14  1  0.22646116  0.39016446  0.43049907  1
  He  He15  1  0.72646116  0.10983554  0.56950093  1
  Li  Li16  1  0.83556933  0.73336110  0.56072086  1
  Li  Li17  1  0.33556933  0.76663890  0.43927914  1
  Li  Li18  1  0.16443067  0.26663890  0.43927914  1
  Li  Li19  1  0.66443067  0.23336110  0.56072086  1
  Be  Be20  1  0.91082327  0.85711596  0.28803520  1
  Be  Be21  1  0.41082327  0.64288404  0.71196480  1
  Be  Be22  1  0.08917673  0.14288404  0.71196480  1
  Be  Be23  1  0.58917673  0.35711596  0.28803520  1
