# generated using pymatgen
data_HHeLi
_symmetry_space_group_name_H-M   'P 1'
_cell_length_a   4.41178805
_cell_length_b   6.93818794
_cell_length_c   7.45581056
_cell_angle_alpha   90.00000000
_cell_angle_beta   90.00000000
_cell_angle_gamma   90.00000000
_symmetry_Int_Tables_number   1
_chemical_formula_structural   HHeLi
_chemical_formula_sum   'H4 He4 Li4'
_cell_volume   228.22097934
_cell_formula_units_Z   4
loop_
 _symmetry_equiv_pos_site_id
 _symmetry_equiv_pos_as_xyz
  1  'x, y, z'
loop_
 _atom_site_type_symbol
 _atom_site_label
 _atom_site_symmetry_multiplicity
 _atom_site_fract_x
 _atom_site_fract_y
 _atom_site_fract_z
 _atom_site_occupancy
  H  H0  1  0.25000000  0.81809200  0.41810842  1
  H  H1  1  0.75000000  0.68190800  0.91810842  1
  H  H2  1  0.75000000  0.18190800  0.58189158  1
  H  H3  1  0.25000000  0.31809200  0.08189158  1
  He  He4  1  0.25000000  0.20263593  0.40848783  1
  He  He5  1  0.75000000  0.29736407  0.90848783  1
  He  He6  1  0.75000000  0.79736407  0.59151217  1
  He  He7  1  0.25000000  0.70263593  0.09151217  1
  Li  Li8  1  0.25000000  0.98290655  0.80215618  1
  Li  Li9  1  0.75000000  0.51709345  0.30215618  1
  Li  Li10  1  0.75000000  0.01709345  0.19784382  1
  Li  Li11  1  0.25000000  0.48290655  0.69784382  1
