# generated using pymatgen
data_HHe6Li
_symmetry_space_group_name_H-M   'P 1'
_cell_length_a   4.78980975
_cell_length_b   4.78980975
_cell_length_c   4.78980975
_cell_angle_alpha   98.04459490
_cell_angle_beta   98.04459490
_cell_angle_gamma   98.04459490
_symmetry_Int_Tables_number   1
_chemical_formula_structural   HHe6Li
_chemical_formula_sum   'H1 He6 Li1'
_cell_volume   106.30125052
_cell_formula_units_Z   1
loop_
 _symmetry_equiv_pos_site_id
 _symmetry_equiv_pos_as_xyz
  1  'x, y, z'
loop_
 _atom_site_type_symbol
 _atom_site_label
 _atom_site_symmetry_multiplicity
 _atom_site_fract_x
 _atom_site_fract_y
 _atom_site_fract_z
 _atom_site_occupancy
  H  H0  1  0.00000000  -0.00000000  -0.00000000  1
  He  He1  1  0.07866872  0.72148644  0.72148644  1
  He  He2  1  0.72148644  0.72148644  0.07866872  1
  He  He3  1  0.72148644  0.07866872  0.72148644  1
  He  He4  1  0.92133128  0.27851356  0.27851356  1
  He  He5  1  0.27851356  0.92133128  0.27851356  1
  He  He6  1  0.27851356  0.27851356  0.92133128  1
  Li  Li7  1  0.50000000  0.50000000  0.50000000  1
