# generated using pymatgen
data_HHe3Li
_symmetry_space_group_name_H-M   'P 1'
_cell_length_a   5.37981542
_cell_length_b   8.85238512
_cell_length_c   9.36043565
_cell_angle_alpha   90.00000000
_cell_angle_beta   90.00000000
_cell_angle_gamma   90.00000000
_symmetry_Int_Tables_number   1
_chemical_formula_structural   HHe3Li
_chemical_formula_sum   'H8 He24 Li8'
_cell_volume   445.78324089
_cell_formula_units_Z   8
loop_
 _symmetry_equiv_pos_site_id
 _symmetry_equiv_pos_as_xyz
  1  'x, y, z'
loop_
 _atom_site_type_symbol
 _atom_site_label
 _atom_site_symmetry_multiplicity
 _atom_site_fract_x
 _atom_site_fract_y
 _atom_site_fract_z
 _atom_site_occupancy
  H  H0  1  0.75000000  0.90219167  0.00000000  1
  H  H1  1  0.25000000  0.59780833  0.50000000  1
  H  H2  1  0.25000000  0.09780833  -0.00000000  1
  H  H3  1  0.75000000  0.40219167  0.50000000  1
  H  H4  1  0.25000000  0.73765371  -0.00000000  1
  H  H5  1  0.75000000  0.76234629  0.50000000  1
  H  H6  1  0.75000000  0.26234629  0.00000000  1
  H  H7  1  0.25000000  0.23765371  0.50000000  1
  He  He8  1  0.07799799  0.90611331  0.11793938  1
  He  He9  1  0.57799799  0.59388669  0.38206062  1
  He  He10  1  0.42200201  0.90611331  0.88206062  1
  He  He11  1  0.92200201  0.59388669  0.61793938  1
  He  He12  1  0.92200201  0.09388669  0.88206062  1
  He  He13  1  0.42200201  0.40611331  0.61793938  1
  He  He14  1  0.57799799  0.09388669  0.11793938  1
  He  He15  1  0.07799799  0.40611331  0.38206062  1
  He  He16  1  0.06818758  0.75184982  0.37785803  1
  He  He17  1  0.56818758  0.74815018  0.12214197  1
  He  He18  1  0.43181242  0.75184982  0.62214197  1
  He  He19  1  0.93181242  0.74815018  0.87785803  1
  He  He20  1  0.93181242  0.24815018  0.62214197  1
  He  He21  1  0.43181242  0.25184982  0.87785803  1
  He  He22  1  0.56818758  0.24815018  0.37785803  1
  He  He23  1  0.06818758  0.25184982  0.12214197  1
  He  He24  1  0.29095332  0.02394575  0.34892596  1
  He  He25  1  0.79095332  0.47605425  0.15107404  1
  He  He26  1  0.20904668  0.02394575  0.65107404  1
  He  He27  1  0.70904668  0.47605425  0.84892596  1
  He  He28  1  0.70904668  0.97605425  0.65107404  1
  He  He29  1  0.20904668  0.52394575  0.84892596  1
  He  He30  1  0.79095332  0.97605425  0.34892596  1
  He  He31  1  0.29095332  0.52394575  0.15107404  1
  Li  Li32  1  0.06652401  0.90917328  0.29210349  1
  Li  Li33  1  0.56652401  0.59082672  0.20789651  1
  Li  Li34  1  0.43347599  0.90917328  0.70789651  1
  Li  Li35  1  0.93347599  0.59082672  0.79210349  1
  Li  Li36  1  0.93347599  0.09082672  0.70789651  1
  Li  Li37  1  0.43347599  0.40917328  0.79210349  1
  Li  Li38  1  0.56652401  0.09082672  0.29210349  1
  Li  Li39  1  0.06652401  0.40917328  0.20789651  1
