# generated using pymatgen
data_HHe8(Li5Be)2
_symmetry_space_group_name_H-M   'P 1'
_cell_length_a   11.80312672
_cell_length_b   7.35591256
_cell_length_c   7.12131651
_cell_angle_alpha   87.46597717
_cell_angle_beta   90.00000000
_cell_angle_gamma   90.00000000
_symmetry_Int_Tables_number   1
_chemical_formula_structural   HHe8(Li5Be)2
_chemical_formula_sum   'H2 He16 Li20 Be4'
_cell_volume   617.68781109
_cell_formula_units_Z   2
loop_
 _symmetry_equiv_pos_site_id
 _symmetry_equiv_pos_as_xyz
  1  'x, y, z'
loop_
 _atom_site_type_symbol
 _atom_site_label
 _atom_site_symmetry_multiplicity
 _atom_site_fract_x
 _atom_site_fract_y
 _atom_site_fract_z
 _atom_site_occupancy
  H  H0  1  0.50000000  0.50000000  0.50000000  1
  H  H1  1  0.00000000  -0.00000000  0.50000000  1
  He  He2  1  0.62389753  0.97148056  0.33529562  1
  He  He3  1  0.12389753  0.52851944  0.66470438  1
  He  He4  1  0.37610247  0.02851944  0.66470438  1
  He  He5  1  0.87610247  0.47148056  0.33529562  1
  He  He6  1  0.38785846  0.20480177  0.11811288  1
  He  He7  1  0.88785846  0.29519823  0.88188712  1
  He  He8  1  0.61214154  0.79519823  0.88188712  1
  He  He9  1  0.11214154  0.70480177  0.11811288  1
  He  He10  1  0.66297912  0.33411978  0.35396932  1
  He  He11  1  0.16297912  0.16588022  0.64603068  1
  He  He12  1  0.33702088  0.66588022  0.64603068  1
  He  He13  1  0.83702088  0.83411978  0.35396932  1
  He  He14  1  0.88223757  0.87791067  0.15217871  1
  He  He15  1  0.38223757  0.62208933  0.84782129  1
  He  He16  1  0.11776243  0.12208933  0.84782129  1
  He  He17  1  0.61776243  0.37791067  0.15217871  1
  Li  Li18  1  0.58081716  0.25549852  0.62884781  1
  Li  Li19  1  0.08081716  0.24450148  0.37115219  1
  Li  Li20  1  0.41918284  0.74450148  0.37115219  1
  Li  Li21  1  0.91918284  0.75549852  0.62884781  1
  Li  Li22  1  0.87664009  0.17599241  0.83068414  1
  Li  Li23  1  0.37664009  0.32400759  0.16931586  1
  Li  Li24  1  0.12335991  0.82400759  0.16931586  1
  Li  Li25  1  0.62335991  0.67599241  0.83068414  1
  Li  Li26  1  0.71488931  0.72140421  0.69450701  1
  Li  Li27  1  0.21488931  0.77859579  0.30549299  1
  Li  Li28  1  0.28511069  0.27859579  0.30549299  1
  Li  Li29  1  0.78511069  0.22140421  0.69450701  1
  Li  Li30  1  0.64946850  0.22579849  -0.01122074  1
  Li  Li31  1  0.14946850  0.27420151  0.01122074  1
  Li  Li32  1  0.35053150  0.77420151  0.01122074  1
  Li  Li33  1  0.85053150  0.72579849  -0.01122074  1
  Li  Li34  1  0.62398764  0.42886649  0.27895743  1
  Li  Li35  1  0.12398764  0.07113351  0.72104257  1
  Li  Li36  1  0.37601236  0.57113351  0.72104257  1
  Li  Li37  1  0.87601236  0.92886649  0.27895743  1
  Be  Be38  1  0.65564426  0.17625481  0.78720369  1
  Be  Be39  1  0.15564426  0.32374519  0.21279631  1
  Be  Be40  1  0.34435574  0.82374519  0.21279631  1
  Be  Be41  1  0.84435574  0.67625481  0.78720369  1
