# generated using pymatgen
data_HHeLi4
_symmetry_space_group_name_H-M   'P 1'
_cell_length_a   7.53598196
_cell_length_b   7.53598196
_cell_length_c   7.53598196
_cell_angle_alpha   126.87918877
_cell_angle_beta   126.87918877
_cell_angle_gamma   78.44786913
_symmetry_Int_Tables_number   1
_chemical_formula_structural   HHeLi4
_chemical_formula_sum   'H2 He2 Li8'
_cell_volume   265.14976060
_cell_formula_units_Z   2
loop_
 _symmetry_equiv_pos_site_id
 _symmetry_equiv_pos_as_xyz
  1  'x, y, z'
loop_
 _atom_site_type_symbol
 _atom_site_label
 _atom_site_symmetry_multiplicity
 _atom_site_fract_x
 _atom_site_fract_y
 _atom_site_fract_z
 _atom_site_occupancy
  H  H0  1  0.75000000  0.75000000  0.00000000  1
  H  H1  1  0.25000000  0.25000000  0.00000000  1
  He  He2  1  0.00000000  0.00000000  0.00000000  1
  He  He3  1  0.50000000  0.50000000  0.00000000  1
  Li  Li4  1  0.29543437  0.79543437  0.81950913  1
  Li  Li5  1  0.97592524  0.47592524  0.18049087  1
  Li  Li6  1  0.47592524  0.29543437  0.50000000  1
  Li  Li7  1  0.79543437  0.97592524  0.50000000  1
  Li  Li8  1  0.52407476  0.70456563  0.50000000  1
  Li  Li9  1  0.20456563  0.02407476  0.50000000  1
  Li  Li10  1  0.70456563  0.20456563  0.18049087  1
  Li  Li11  1  0.02407476  0.52407476  0.81950913  1
