# generated using pymatgen
data_H2He12LiBe6
_symmetry_space_group_name_H-M   'P 1'
_cell_length_a   6.23605798
_cell_length_b   6.23605798
_cell_length_c   6.66510305
_cell_angle_alpha   64.08566194
_cell_angle_beta   64.08566194
_cell_angle_gamma   69.00424484
_symmetry_Int_Tables_number   1
_chemical_formula_structural   H2He12LiBe6
_chemical_formula_sum   'H2 He12 Li1 Be6'
_cell_volume   205.15792587
_cell_formula_units_Z   1
loop_
 _symmetry_equiv_pos_site_id
 _symmetry_equiv_pos_as_xyz
  1  'x, y, z'
loop_
 _atom_site_type_symbol
 _atom_site_label
 _atom_site_symmetry_multiplicity
 _atom_site_fract_x
 _atom_site_fract_y
 _atom_site_fract_z
 _atom_site_occupancy
  H  H0  1  0.72542784  0.72542784  0.16240846  1
  H  H1  1  0.27457216  0.27457216  0.83759154  1
  He  He2  1  0.19996144  0.58680883  0.27407113  1
  He  He3  1  0.41319117  0.80003856  0.72592887  1
  He  He4  1  0.80003856  0.41319117  0.72592887  1
  He  He5  1  0.58680883  0.19996144  0.27407113  1
  He  He6  1  0.78936915  0.32949781  0.22272254  1
  He  He7  1  0.67050219  0.21063085  0.77727746  1
  He  He8  1  0.21063085  0.67050219  0.77727746  1
  He  He9  1  0.32949781  0.78936915  0.22272254  1
  He  He10  1  0.81587567  0.81587567  0.55281122  1
  He  He11  1  0.18412433  0.18412433  0.44718878  1
  He  He12  1  0.73698565  0.73698565  0.83279460  1
  He  He13  1  0.26301435  0.26301435  0.16720540  1
  Li  Li14  1  0.00000000  0.00000000  -0.00000000  1
  Be  Be15  1  0.16961189  0.76333688  0.25216394  1
  Be  Be16  1  0.23666312  0.83038811  0.74783606  1
  Be  Be17  1  0.83038811  0.23666312  0.74783606  1
  Be  Be18  1  0.76333688  0.16961189  0.25216394  1
  Be  Be19  1  0.71636459  0.71636459  0.70296463  1
  Be  Be20  1  0.28363541  0.28363541  0.29703537  1
