# generated using pymatgen
data_H3He3Li
_symmetry_space_group_name_H-M   'P 1'
_cell_length_a   6.34729463
_cell_length_b   6.34739462
_cell_length_c   3.57791301
_cell_angle_alpha   90.00000000
_cell_angle_beta   90.00000000
_cell_angle_gamma   119.99846618
_symmetry_Int_Tables_number   1
_chemical_formula_structural   H3He3Li
_chemical_formula_sum   'H6 He6 Li2'
_cell_volume   124.83928677
_cell_formula_units_Z   2
loop_
 _symmetry_equiv_pos_site_id
 _symmetry_equiv_pos_as_xyz
  1  'x, y, z'
loop_
 _atom_site_type_symbol
 _atom_site_label
 _atom_site_symmetry_multiplicity
 _atom_site_fract_x
 _atom_site_fract_y
 _atom_site_fract_z
 _atom_site_occupancy
  H  H0  1  0.27643710  0.13722943  0.25000000  1
  H  H1  1  0.86276045  0.13920471  0.25000000  1
  H  H2  1  0.86079719  0.72356971  0.25000000  1
  H  H3  1  0.72356290  0.86277057  0.75000000  1
  H  H4  1  0.13723955  0.86079529  0.75000000  1
  H  H5  1  0.13920281  0.27643029  0.75000000  1
  He  He6  1  0.39589347  0.08354270  0.25000000  1
  He  He7  1  0.91645393  0.31234612  0.25000000  1
  He  He8  1  0.68765666  0.60411341  0.25000000  1
  He  He9  1  0.60410653  0.91645730  0.75000000  1
  He  He10  1  0.08354607  0.68765388  0.75000000  1
  He  He11  1  0.31234334  0.39588659  0.75000000  1
  Li  Li12  1  0.33333967  0.66667883  0.25000000  1
  Li  Li13  1  0.66666033  0.33332117  0.75000000  1
