# generated using pymatgen
data_H5He7
_symmetry_space_group_name_H-M   'P 1'
_cell_length_a   6.66818363
_cell_length_b   6.66818363
_cell_length_c   11.56795125
_cell_angle_alpha   76.08650457
_cell_angle_beta   76.08650457
_cell_angle_gamma   33.01083983
_symmetry_Int_Tables_number   1
_chemical_formula_structural   H5He7
_chemical_formula_sum   'H5 He7'
_cell_volume   271.26931552
_cell_formula_units_Z   1
loop_
 _symmetry_equiv_pos_site_id
 _symmetry_equiv_pos_as_xyz
  1  'x, y, z'
loop_
 _atom_site_type_symbol
 _atom_site_label
 _atom_site_symmetry_multiplicity
 _atom_site_fract_x
 _atom_site_fract_y
 _atom_site_fract_z
 _atom_site_occupancy
  H  H0  1  0.00000000  0.00000000  0.00000000  1
  H  H1  1  0.11195507  0.11195507  0.57869802  1
  H  H2  1  0.88804493  0.88804493  0.42130198  1
  H  H3  1  0.30029710  0.30029710  0.81275651  1
  H  H4  1  0.69970290  0.69970290  0.18724349  1
  He  He5  1  0.50000000  0.50000000  0.50000000  1
  He  He6  1  0.65914596  0.65914596  0.94901687  1
  He  He7  1  0.34085404  0.34085404  0.05098313  1
  He  He8  1  0.95878620  0.95878620  0.78499584  1
  He  He9  1  0.04121380  0.04121380  0.21500416  1
  He  He10  1  0.25900097  0.25900097  0.35244839  1
  He  He11  1  0.74099903  0.74099903  0.64755161  1
