# generated using pymatgen
data_H3HeLi
_symmetry_space_group_name_H-M   'P 1'
_cell_length_a   4.35241069
_cell_length_b   10.25558742
_cell_length_c   16.50293167
_cell_angle_alpha   90.00000000
_cell_angle_beta   90.00000000
_cell_angle_gamma   90.00000000
_symmetry_Int_Tables_number   1
_chemical_formula_structural   H3HeLi
_chemical_formula_sum   'H12 He4 Li4'
_cell_volume   736.63357642
_cell_formula_units_Z   4
loop_
 _symmetry_equiv_pos_site_id
 _symmetry_equiv_pos_as_xyz
  1  'x, y, z'
loop_
 _atom_site_type_symbol
 _atom_site_label
 _atom_site_symmetry_multiplicity
 _atom_site_fract_x
 _atom_site_fract_y
 _atom_site_fract_z
 _atom_site_occupancy
  H  H0  1  0.25000000  0.28228247  0.21181457  1
  H  H1  1  0.75000000  0.21771753  0.71181457  1
  H  H2  1  0.75000000  0.71771753  0.78818543  1
  H  H3  1  0.25000000  0.78228247  0.28818543  1
  H  H4  1  0.25000000  0.16936648  0.49345339  1
  H  H5  1  0.75000000  0.33063352  0.99345339  1
  H  H6  1  0.75000000  0.83063352  0.50654661  1
  H  H7  1  0.25000000  0.66936648  0.00654661  1
  H  H8  1  0.25000000  0.02021287  0.89649909  1
  H  H9  1  0.75000000  0.47978713  0.39649909  1
  H  H10  1  0.75000000  0.97978713  0.10350091  1
  H  H11  1  0.25000000  0.52021287  0.60350091  1
  He  He12  1  0.25000000  0.16355373  0.05550155  1
  He  He13  1  0.75000000  0.33644627  0.55550155  1
  He  He14  1  0.75000000  0.83644627  0.94449845  1
  He  He15  1  0.25000000  0.66355373  0.44449845  1
  Li  Li16  1  0.25000000  0.44802660  0.82457349  1
  Li  Li17  1  0.75000000  0.05197340  0.32457349  1
  Li  Li18  1  0.75000000  0.55197340  0.17542651  1
  Li  Li19  1  0.25000000  0.94802660  0.67542651  1
