# generated using pymatgen
data_HHe3Li
_symmetry_space_group_name_H-M   'P 1'
_cell_length_a   5.77826138
_cell_length_b   5.77696404
_cell_length_c   5.78201024
_cell_angle_alpha   136.15837772
_cell_angle_beta   136.38001993
_cell_angle_gamma   63.57856053
_symmetry_Int_Tables_number   1
_chemical_formula_structural   HHe3Li
_chemical_formula_sum   'H1 He3 Li1'
_cell_volume   91.01866869
_cell_formula_units_Z   1
loop_
 _symmetry_equiv_pos_site_id
 _symmetry_equiv_pos_as_xyz
  1  'x, y, z'
loop_
 _atom_site_type_symbol
 _atom_site_label
 _atom_site_symmetry_multiplicity
 _atom_site_fract_x
 _atom_site_fract_y
 _atom_site_fract_z
 _atom_site_occupancy
  H  H0  1  0.99808944  0.99806174  0.00039222  1
  He  He1  1  0.22907881  0.22869174  0.99987897  1
  He  He2  1  0.40673557  0.90678317  0.50003449  1
  He  He3  1  0.90681797  0.40696154  0.49977057  1
  Li  Li4  1  0.66367821  0.66390181  0.99992375  1
