# generated using pymatgen
data_H4HeLi
_symmetry_space_group_name_H-M   'P 1'
_cell_length_a   3.35258645
_cell_length_b   5.90933694
_cell_length_c   11.45504945
_cell_angle_alpha   90.00000000
_cell_angle_beta   90.00000000
_cell_angle_gamma   90.00000000
_symmetry_Int_Tables_number   1
_chemical_formula_structural   H4HeLi
_chemical_formula_sum   'H16 He4 Li4'
_cell_volume   226.94243370
_cell_formula_units_Z   4
loop_
 _symmetry_equiv_pos_site_id
 _symmetry_equiv_pos_as_xyz
  1  'x, y, z'
loop_
 _atom_site_type_symbol
 _atom_site_label
 _atom_site_symmetry_multiplicity
 _atom_site_fract_x
 _atom_site_fract_y
 _atom_site_fract_z
 _atom_site_occupancy
  H  H0  1  0.50000000  0.28268868  0.68392394  1
  H  H1  1  0.50000000  0.71731132  0.31607606  1
  H  H2  1  0.50000000  0.21731132  0.18392394  1
  H  H3  1  0.50000000  0.78268868  0.81607606  1
  H  H4  1  0.50000000  0.36129499  0.53264322  1
  H  H5  1  0.50000000  0.63870501  0.46735678  1
  H  H6  1  0.50000000  0.13870501  0.03264322  1
  H  H7  1  0.50000000  0.86129499  0.96735678  1
  H  H8  1  0.50000000  0.38816864  0.95301820  1
  H  H9  1  0.50000000  0.61183136  0.04698180  1
  H  H10  1  0.50000000  0.11183136  0.45301820  1
  H  H11  1  0.50000000  0.88816864  0.54698180  1
  H  H12  1  0.50000000  0.47946721  0.80914296  1
  H  H13  1  0.50000000  0.52053279  0.19085704  1
  H  H14  1  0.50000000  0.02053279  0.30914296  1
  H  H15  1  0.50000000  0.97946721  0.69085704  1
  He  He16  1  0.00000000  0.13415514  0.58754789  1
  He  He17  1  -0.00000000  0.86584486  0.41245211  1
  He  He18  1  -0.00000000  0.36584486  0.08754789  1
  He  He19  1  0.00000000  0.63415514  0.91245211  1
  Li  Li20  1  0.00000000  0.12796130  0.84956743  1
  Li  Li21  1  -0.00000000  0.87203870  0.15043257  1
  Li  Li22  1  0.00000000  0.37203870  0.34956743  1
  Li  Li23  1  0.00000000  0.62796130  0.65043257  1
