# generated using pymatgen
data_H3He4Li13
_symmetry_space_group_name_H-M   'P 1'
_cell_length_a   10.02030086
_cell_length_b   10.02030086
_cell_length_c   10.02030086
_cell_angle_alpha   90.00000000
_cell_angle_beta   90.00000000
_cell_angle_gamma   90.00000000
_symmetry_Int_Tables_number   1
_chemical_formula_structural   H3He4Li13
_chemical_formula_sum   'H6 He8 Li26'
_cell_volume   1006.10262870
_cell_formula_units_Z   2
loop_
 _symmetry_equiv_pos_site_id
 _symmetry_equiv_pos_as_xyz
  1  'x, y, z'
loop_
 _atom_site_type_symbol
 _atom_site_label
 _atom_site_symmetry_multiplicity
 _atom_site_fract_x
 _atom_site_fract_y
 _atom_site_fract_z
 _atom_site_occupancy
  H  H0  1  0.25000000  0.50000000  -0.00000000  1
  H  H1  1  0.75000000  0.50000000  -0.00000000  1
  H  H2  1  -0.00000000  0.25000000  0.50000000  1
  H  H3  1  -0.00000000  0.75000000  0.50000000  1
  H  H4  1  0.50000000  0.00000000  0.25000000  1
  H  H5  1  0.50000000  0.00000000  0.75000000  1
  He  He6  1  0.25000000  0.25000000  0.25000000  1
  He  He7  1  0.75000000  0.75000000  0.25000000  1
  He  He8  1  0.75000000  0.25000000  0.75000000  1
  He  He9  1  0.25000000  0.75000000  0.75000000  1
  He  He10  1  0.75000000  0.75000000  0.75000000  1
  He  He11  1  0.25000000  0.25000000  0.75000000  1
  He  He12  1  0.25000000  0.75000000  0.25000000  1
  He  He13  1  0.75000000  0.25000000  0.25000000  1
  Li  Li14  1  -0.00000000  -0.00000000  -0.00000000  1
  Li  Li15  1  0.50000000  0.50000000  0.50000000  1
  Li  Li16  1  0.00000000  0.30963727  0.15490493  1
  Li  Li17  1  -0.00000000  0.69036273  0.15490493  1
  Li  Li18  1  0.00000000  0.30963727  0.84509507  1
  Li  Li19  1  -0.00000000  0.69036273  0.84509507  1
  Li  Li20  1  0.15490493  0.00000000  0.30963727  1
  Li  Li21  1  0.15490493  -0.00000000  0.69036273  1
  Li  Li22  1  0.84509507  0.00000000  0.30963727  1
  Li  Li23  1  0.84509507  -0.00000000  0.69036273  1
  Li  Li24  1  0.30963727  0.15490493  -0.00000000  1
  Li  Li25  1  0.69036273  0.15490493  0.00000000  1
  Li  Li26  1  0.30963727  0.84509507  -0.00000000  1
  Li  Li27  1  0.69036273  0.84509507  0.00000000  1
  Li  Li28  1  0.80963727  0.50000000  0.34509507  1
  Li  Li29  1  0.19036273  0.50000000  0.34509507  1
  Li  Li30  1  0.80963727  0.50000000  0.65490493  1
  Li  Li31  1  0.19036273  0.50000000  0.65490493  1
  Li  Li32  1  0.50000000  0.65490493  0.19036273  1
  Li  Li33  1  0.50000000  0.65490493  0.80963727  1
  Li  Li34  1  0.50000000  0.34509507  0.19036273  1
  Li  Li35  1  0.50000000  0.34509507  0.80963727  1
  Li  Li36  1  0.65490493  0.80963727  0.50000000  1
  Li  Li37  1  0.65490493  0.19036273  0.50000000  1
  Li  Li38  1  0.34509507  0.80963727  0.50000000  1
  Li  Li39  1  0.34509507  0.19036273  0.50000000  1
