# generated using pymatgen
data_H2He
_symmetry_space_group_name_H-M   'P 1'
_cell_length_a   11.58218576
_cell_length_b   11.57766106
_cell_length_c   5.19433954
_cell_angle_alpha   90.00000000
_cell_angle_beta   90.00000000
_cell_angle_gamma   90.00000000
_symmetry_Int_Tables_number   1
_chemical_formula_structural   H2He
_chemical_formula_sum   'H32 He16'
_cell_volume   696.53299174
_cell_formula_units_Z   16
loop_
 _symmetry_equiv_pos_site_id
 _symmetry_equiv_pos_as_xyz
  1  'x, y, z'
loop_
 _atom_site_type_symbol
 _atom_site_label
 _atom_site_symmetry_multiplicity
 _atom_site_fract_x
 _atom_site_fract_y
 _atom_site_fract_z
 _atom_site_occupancy
  H  H0  1  0.13939213  0.10833453  0.25158016  1
  H  H1  1  0.86060787  0.89166547  0.25158016  1
  H  H2  1  0.36060787  0.60833453  0.74841984  1
  H  H3  1  0.63939213  0.39166547  0.74841984  1
  H  H4  1  0.89160275  0.86063489  0.75141201  1
  H  H5  1  0.10839725  0.13936511  0.75141201  1
  H  H6  1  0.60839725  0.36063489  0.24858799  1
  H  H7  1  0.39160275  0.63936511  0.24858799  1
  H  H8  1  0.82033515  0.68311884  0.45798436  1
  H  H9  1  0.17966485  0.31688116  0.45798436  1
  H  H10  1  0.67966485  0.18311884  0.54201564  1
  H  H11  1  0.32033515  0.81688116  0.54201564  1
  H  H12  1  0.31665979  0.18001217  0.95892590  1
  H  H13  1  0.68334021  0.81998783  0.95892590  1
  H  H14  1  0.18334021  0.68001217  0.04107410  1
  H  H15  1  0.81665979  0.31998783  0.04107410  1
  H  H16  1  0.73532794  0.53857527  0.07763921  1
  H  H17  1  0.26467206  0.46142473  0.07763921  1
  H  H18  1  0.76467206  0.03857527  0.92236079  1
  H  H19  1  0.23532794  0.96142473  0.92236079  1
  H  H20  1  0.46142406  0.26467139  0.57876890  1
  H  H21  1  0.53857594  0.73532861  0.57876890  1
  H  H22  1  0.03857594  0.76467139  0.42123110  1
  H  H23  1  0.96142406  0.23532861  0.42123110  1
  H  H24  1  0.95594491  0.61922585  0.08461058  1
  H  H25  1  0.04405509  0.38077415  0.08461058  1
  H  H26  1  0.54405509  0.11922585  0.91538942  1
  H  H27  1  0.45594491  0.88077415  0.91538942  1
  H  H28  1  0.38120638  0.04403383  0.58719309  1
  H  H29  1  0.61879362  0.95596617  0.58719309  1
  H  H30  1  0.11879362  0.54403383  0.41280691  1
  H  H31  1  0.88120638  0.45596617  0.41280691  1
  He  He32  1  0.19971779  0.09751515  0.97206624  1
  He  He33  1  0.80028221  0.90248485  0.97206624  1
  He  He34  1  0.30028221  0.59751515  0.02793376  1
  He  He35  1  0.69971779  0.40248485  0.02793376  1
  He  He36  1  0.65566430  0.07590187  0.74012783  1
  He  He37  1  0.34433570  0.92409813  0.74012783  1
  He  He38  1  0.84433570  0.57590187  0.25987217  1
  He  He39  1  0.15566430  0.42409813  0.25987217  1
  He  He40  1  0.90255367  0.80026891  0.47187752  1
  He  He41  1  0.09744633  0.19973109  0.47187752  1
  He  He42  1  0.59744633  0.30026891  0.52812248  1
  He  He43  1  0.40255367  0.69973109  0.52812248  1
  He  He44  1  0.42420384  0.15588491  0.76190102  1
  He  He45  1  0.57579616  0.84411509  0.76190102  1
  He  He46  1  0.07579616  0.65588491  0.23809898  1
  He  He47  1  0.92420384  0.34411509  0.23809898  1
