# generated using pymatgen
data_HHe3Li7Be
_symmetry_space_group_name_H-M   'P 1'
_cell_length_a   10.02709729
_cell_length_b   10.02735446
_cell_length_c   5.70958802
_cell_angle_alpha   90.00000000
_cell_angle_beta   90.00000000
_cell_angle_gamma   120.00038859
_symmetry_Int_Tables_number   1
_chemical_formula_structural   HHe3Li7Be
_chemical_formula_sum   'H2 He6 Li14 Be2'
_cell_volume   497.15899300
_cell_formula_units_Z   2
loop_
 _symmetry_equiv_pos_site_id
 _symmetry_equiv_pos_as_xyz
  1  'x, y, z'
loop_
 _atom_site_type_symbol
 _atom_site_label
 _atom_site_symmetry_multiplicity
 _atom_site_fract_x
 _atom_site_fract_y
 _atom_site_fract_z
 _atom_site_occupancy
  H  H0  1  0.00000115  0.00000309  0.28342800  1
  H  H1  1  0.99999885  0.99999691  0.78342800  1
  He  He2  1  0.35648591  0.23183062  0.25006829  1
  He  He3  1  0.76816995  0.12465654  0.25006969  1
  He  He4  1  0.87534156  0.64351143  0.25006753  1
  He  He5  1  0.64351409  0.76816938  0.75006829  1
  He  He6  1  0.23183005  0.87534346  0.75006969  1
  He  He7  1  0.12465844  0.35648857  0.75006753  1
  Li  Li8  1  0.25568957  0.16593924  0.76991820  1
  Li  Li9  1  0.83405849  0.08974796  0.76991770  1
  Li  Li10  1  0.91024664  0.74430790  0.76991677  1
  Li  Li11  1  0.74431043  0.83406076  0.26991820  1
  Li  Li12  1  0.16594151  0.91025204  0.26991770  1
  Li  Li13  1  0.08975336  0.25569210  0.26991677  1
  Li  Li14  1  0.52251666  0.10947582  0.51347468  1
  Li  Li15  1  0.89052333  0.41304133  0.51347757  1
  Li  Li16  1  0.58695690  0.47748084  0.51347822  1
  Li  Li17  1  0.47748334  0.89052418  0.01347468  1
  Li  Li18  1  0.10947667  0.58695867  0.01347757  1
  Li  Li19  1  0.41304310  0.52251916  0.01347822  1
  Li  Li20  1  0.66666462  0.33333089  0.03057267  1
  Li  Li21  1  0.33333538  0.66666911  0.53057267  1
  Be  Be22  1  0.66666723  0.33333311  0.66161069  1
  Be  Be23  1  0.33333277  0.66666689  0.16161069  1
