# generated using pymatgen
data_H6He16LiBe4
_symmetry_space_group_name_H-M   'P 1'
_cell_length_a   9.78039937
_cell_length_b   9.09204623
_cell_length_c   9.03910182
_cell_angle_alpha   90.00000000
_cell_angle_beta   90.00000000
_cell_angle_gamma   90.00000000
_symmetry_Int_Tables_number   1
_chemical_formula_structural   H6He16LiBe4
_chemical_formula_sum   'H12 He32 Li2 Be8'
_cell_volume   803.79167340
_cell_formula_units_Z   2
loop_
 _symmetry_equiv_pos_site_id
 _symmetry_equiv_pos_as_xyz
  1  'x, y, z'
loop_
 _atom_site_type_symbol
 _atom_site_label
 _atom_site_symmetry_multiplicity
 _atom_site_fract_x
 _atom_site_fract_y
 _atom_site_fract_z
 _atom_site_occupancy
  H  H0  1  0.50000000  0.50000000  0.78774363  1
  H  H1  1  0.00000000  -0.00000000  0.71225637  1
  H  H2  1  0.50000000  0.50000000  0.21225637  1
  H  H3  1  -0.00000000  0.00000000  0.28774363  1
  H  H4  1  0.18714629  0.61635089  0.50000000  1
  H  H5  1  0.81285371  0.38364911  0.50000000  1
  H  H6  1  0.31285371  0.11635089  -0.00000000  1
  H  H7  1  0.68714629  0.88364911  0.00000000  1
  H  H8  1  0.38957955  0.17919527  0.50000000  1
  H  H9  1  0.61042045  0.82080473  0.50000000  1
  H  H10  1  0.11042045  0.67919527  -0.00000000  1
  H  H11  1  0.88957955  0.32080473  0.00000000  1
  He  He12  1  0.67330310  0.06960684  0.18447472  1
  He  He13  1  0.32669690  0.93039316  0.18447472  1
  He  He14  1  0.82669690  0.56960684  0.31552528  1
  He  He15  1  0.17330310  0.43039316  0.31552528  1
  He  He16  1  0.32669690  0.93039316  0.81552528  1
  He  He17  1  0.67330310  0.06960684  0.81552528  1
  He  He18  1  0.17330310  0.43039316  0.68447472  1
  He  He19  1  0.82669690  0.56960684  0.68447472  1
  He  He20  1  0.73400474  0.19945855  0.30569413  1
  He  He21  1  0.26599526  0.80054145  0.30569413  1
  He  He22  1  0.76599526  0.69945855  0.19430587  1
  He  He23  1  0.23400474  0.30054145  0.19430587  1
  He  He24  1  0.26599526  0.80054145  0.69430587  1
  He  He25  1  0.73400474  0.19945855  0.69430587  1
  He  He26  1  0.23400474  0.30054145  0.80569413  1
  He  He27  1  0.76599526  0.69945855  0.80569413  1
  He  He28  1  0.57897626  0.12440787  0.33595293  1
  He  He29  1  0.42102374  0.87559213  0.33595293  1
  He  He30  1  0.92102374  0.62440787  0.16404707  1
  He  He31  1  0.07897626  0.37559213  0.16404707  1
  He  He32  1  0.42102374  0.87559213  0.66404707  1
  He  He33  1  0.57897626  0.12440787  0.66404707  1
  He  He34  1  0.07897626  0.37559213  0.83595293  1
  He  He35  1  0.92102374  0.62440787  0.83595293  1
  He  He36  1  0.60248812  0.24067485  0.19543892  1
  He  He37  1  0.39751188  0.75932515  0.19543892  1
  He  He38  1  0.89751188  0.74067485  0.30456108  1
  He  He39  1  0.10248812  0.25932515  0.30456108  1
  He  He40  1  0.39751188  0.75932515  0.80456108  1
  He  He41  1  0.60248812  0.24067485  0.80456108  1
  He  He42  1  0.10248812  0.25932515  0.69543892  1
  He  He43  1  0.89751188  0.74067485  0.69543892  1
  Li  Li44  1  0.50000000  0.50000000  0.50000000  1
  Li  Li45  1  0.00000000  -0.00000000  0.00000000  1
  Be  Be46  1  0.64805463  0.15662019  0.25449404  1
  Be  Be47  1  0.35194537  0.84337981  0.25449404  1
  Be  Be48  1  0.85194537  0.65662019  0.24550596  1
  Be  Be49  1  0.14805463  0.34337981  0.24550596  1
  Be  Be50  1  0.35194537  0.84337981  0.74550596  1
  Be  Be51  1  0.64805463  0.15662019  0.74550596  1
  Be  Be52  1  0.14805463  0.34337981  0.75449404  1
  Be  Be53  1  0.85194537  0.65662019  0.75449404  1
