# generated using pymatgen
data_H2He2Li11(BeB)2
_symmetry_space_group_name_H-M   'P 1'
_cell_length_a   6.18052076
_cell_length_b   11.31773120
_cell_length_c   13.11511037
_cell_angle_alpha   90.00000000
_cell_angle_beta   90.00000000
_cell_angle_gamma   90.00000000
_symmetry_Int_Tables_number   1
_chemical_formula_structural   H2He2Li11(BeB)2
_chemical_formula_sum   'H8 He8 Li44 Be8 B8'
_cell_volume   917.39505341
_cell_formula_units_Z   4
loop_
 _symmetry_equiv_pos_site_id
 _symmetry_equiv_pos_as_xyz
  1  'x, y, z'
loop_
 _atom_site_type_symbol
 _atom_site_label
 _atom_site_symmetry_multiplicity
 _atom_site_fract_x
 _atom_site_fract_y
 _atom_site_fract_z
 _atom_site_occupancy
  H  H0  1  0.31218892  0.30919257  0.02951316  1
  H  H1  1  0.68781108  0.69080743  0.52951316  1
  H  H2  1  0.68781108  0.80919257  0.47048684  1
  H  H3  1  0.31218892  0.19080743  0.97048684  1
  H  H4  1  0.68781108  0.69080743  0.97048684  1
  H  H5  1  0.31218892  0.30919257  0.47048684  1
  H  H6  1  0.31218892  0.19080743  0.52951316  1
  H  H7  1  0.68781108  0.80919257  0.02951316  1
  He  He8  1  0.19893194  0.41873876  0.25000000  1
  He  He9  1  0.80106806  0.58126124  0.75000000  1
  He  He10  1  0.80106806  0.91873876  0.25000000  1
  He  He11  1  0.19893194  0.08126124  0.75000000  1
  He  He12  1  0.52569082  0.16821135  0.25000000  1
  He  He13  1  0.47430918  0.83178865  0.75000000  1
  He  He14  1  0.47430918  0.66821135  0.25000000  1
  He  He15  1  0.52569082  0.33178865  0.75000000  1
  Li  Li16  1  0.11095697  0.83165029  0.13495664  1
  Li  Li17  1  0.88904303  0.16834971  0.63495664  1
  Li  Li18  1  0.88904303  0.33165029  0.36504336  1
  Li  Li19  1  0.11095697  0.66834971  0.86504336  1
  Li  Li20  1  0.88904303  0.16834971  0.86504336  1
  Li  Li21  1  0.11095697  0.83165029  0.36504336  1
  Li  Li22  1  0.11095697  0.66834971  0.63495664  1
  Li  Li23  1  0.88904303  0.33165029  0.13495664  1
  Li  Li24  1  0.21178133  0.59777568  0.03476573  1
  Li  Li25  1  0.78821867  0.40222432  0.53476573  1
  Li  Li26  1  0.78821867  0.09777568  0.46523427  1
  Li  Li27  1  0.21178133  0.90222432  0.96523427  1
  Li  Li28  1  0.78821867  0.40222432  0.96523427  1
  Li  Li29  1  0.21178133  0.59777568  0.46523427  1
  Li  Li30  1  0.21178133  0.90222432  0.53476573  1
  Li  Li31  1  0.78821867  0.09777568  0.03476573  1
  Li  Li32  1  0.23436862  0.03296920  0.11392776  1
  Li  Li33  1  0.76563138  0.96703080  0.61392776  1
  Li  Li34  1  0.76563138  0.53296920  0.38607224  1
  Li  Li35  1  0.23436862  0.46703080  0.88607224  1
  Li  Li36  1  0.76563138  0.96703080  0.88607224  1
  Li  Li37  1  0.23436862  0.03296920  0.38607224  1
  Li  Li38  1  0.23436862  0.46703080  0.61392776  1
  Li  Li39  1  0.76563138  0.53296920  0.11392776  1
  Li  Li40  1  0.51224226  0.37245675  0.09601716  1
  Li  Li41  1  0.48775774  0.62754325  0.59601716  1
  Li  Li42  1  0.48775774  0.87245675  0.40398284  1
  Li  Li43  1  0.51224226  0.12754325  0.90398284  1
  Li  Li44  1  0.48775774  0.62754325  0.90398284  1
  Li  Li45  1  0.51224226  0.37245675  0.40398284  1
  Li  Li46  1  0.51224226  0.12754325  0.59601716  1
  Li  Li47  1  0.48775774  0.87245675  0.09601716  1
  Li  Li48  1  0.16075342  0.60288470  0.25000000  1
  Li  Li49  1  0.83924658  0.39711530  0.75000000  1
  Li  Li50  1  0.83924658  0.10288470  0.25000000  1
  Li  Li51  1  0.16075342  0.89711530  0.75000000  1
  Li  Li52  1  0.21279008  0.23138052  0.25000000  1
  Li  Li53  1  0.78720992  0.76861948  0.75000000  1
  Li  Li54  1  0.78720992  0.73138052  0.25000000  1
  Li  Li55  1  0.21279008  0.26861948  0.75000000  1
  Li  Li56  1  0.20875198  0.25000000  0.00000000  1
  Li  Li57  1  0.79124802  0.75000000  0.50000000  1
  Li  Li58  1  0.79124802  0.75000000  -0.00000000  1
  Li  Li59  1  0.20875198  0.25000000  0.50000000  1
  Be  Be60  1  0.73789408  0.40963412  0.07589556  1
  Be  Be61  1  0.26210592  0.59036588  0.57589556  1
  Be  Be62  1  0.26210592  0.90963412  0.42410444  1
  Be  Be63  1  0.73789408  0.09036588  0.92410444  1
  Be  Be64  1  0.26210592  0.59036588  0.92410444  1
  Be  Be65  1  0.73789408  0.40963412  0.42410444  1
  Be  Be66  1  0.73789408  0.09036588  0.57589556  1
  Be  Be67  1  0.26210592  0.90963412  0.07589556  1
  B  B68  1  0.02195558  0.16774407  0.12530849  1
  B  B69  1  0.97804442  0.83225593  0.62530849  1
  B  B70  1  0.97804442  0.66774407  0.37469151  1
  B  B71  1  0.02195558  0.33225593  0.87469151  1
  B  B72  1  0.97804442  0.83225593  0.87469151  1
  B  B73  1  0.02195558  0.16774407  0.37469151  1
  B  B74  1  0.02195558  0.33225593  0.62530849  1
  B  B75  1  0.97804442  0.66774407  0.12530849  1
