# generated using pymatgen
data_H12HeLi19
_symmetry_space_group_name_H-M   'P 1'
_cell_length_a   5.61425193
_cell_length_b   5.61427739
_cell_length_c   22.04718956
_cell_angle_alpha   90.00000000
_cell_angle_beta   90.00000000
_cell_angle_gamma   119.99984997
_symmetry_Int_Tables_number   1
_chemical_formula_structural   H12HeLi19
_chemical_formula_sum   'H24 He2 Li38'
_cell_volume   601.82508709
_cell_formula_units_Z   2
loop_
 _symmetry_equiv_pos_site_id
 _symmetry_equiv_pos_as_xyz
  1  'x, y, z'
loop_
 _atom_site_type_symbol
 _atom_site_label
 _atom_site_symmetry_multiplicity
 _atom_site_fract_x
 _atom_site_fract_y
 _atom_site_fract_z
 _atom_site_occupancy
  H  H0  1  0.33675392  0.16837571  0.89045607  1
  H  H1  1  0.83162179  0.16837571  0.89045607  1
  H  H2  1  0.83162156  0.66324312  0.89045683  1
  H  H3  1  0.66324608  0.83162429  0.39045607  1
  H  H4  1  0.16837821  0.83162429  0.39045607  1
  H  H5  1  0.16837844  0.33675688  0.39045683  1
  H  H6  1  0.16837821  0.83162429  0.10954393  1
  H  H7  1  0.66324608  0.83162429  0.10954393  1
  H  H8  1  0.16837844  0.33675688  0.10954317  1
  H  H9  1  0.83162179  0.16837571  0.60954393  1
  H  H10  1  0.33675392  0.16837571  0.60954393  1
  H  H11  1  0.83162156  0.66324312  0.60954317  1
  H  H12  1  0.66666869  0.33333739  0.02806807  1
  H  H13  1  0.33333131  0.66666261  0.52806807  1
  H  H14  1  0.33333131  0.66666261  0.97193193  1
  H  H15  1  0.66666869  0.33333739  0.47193193  1
  H  H16  1  0.66666683  0.33333367  0.19101542  1
  H  H17  1  0.33333317  0.66666633  0.69101542  1
  H  H18  1  0.33333317  0.66666633  0.80898458  1
  H  H19  1  0.66666683  0.33333367  0.30898458  1
  H  H20  1  -0.00000000  -0.00000000  0.00000000  1
  H  H21  1  -0.00000000  -0.00000000  0.50000000  1
  H  H22  1  0.00000042  0.00000083  0.25000000  1
  H  H23  1  0.99999958  0.99999917  0.75000000  1
  He  He24  1  0.66668836  0.33337673  0.75000000  1
  He  He25  1  0.33331164  0.66662327  0.25000000  1
  Li  Li26  1  0.31022320  0.15511011  0.05228892  1
  Li  Li27  1  0.84488691  0.15511011  0.05228892  1
  Li  Li28  1  0.84489062  0.68978123  0.05228974  1
  Li  Li29  1  0.68977680  0.84488989  0.55228892  1
  Li  Li30  1  0.15511309  0.84488989  0.55228892  1
  Li  Li31  1  0.15510938  0.31021877  0.55228974  1
  Li  Li32  1  0.15511309  0.84488989  0.94771108  1
  Li  Li33  1  0.68977680  0.84488989  0.94771108  1
  Li  Li34  1  0.15510938  0.31021877  0.94771026  1
  Li  Li35  1  0.84488691  0.15511011  0.44771108  1
  Li  Li36  1  0.31022320  0.15511011  0.44771108  1
  Li  Li37  1  0.84489062  0.68978123  0.44771026  1
  Li  Li38  1  0.00688998  0.50344671  0.14949118  1
  Li  Li39  1  0.49655674  0.50344671  0.14949118  1
  Li  Li40  1  0.49655767  0.99311534  0.14949067  1
  Li  Li41  1  0.99311002  0.49655329  0.64949118  1
  Li  Li42  1  0.50344326  0.49655329  0.64949118  1
  Li  Li43  1  0.50344233  0.00688466  0.64949067  1
  Li  Li44  1  0.50344326  0.49655329  0.85050882  1
  Li  Li45  1  0.99311002  0.49655329  0.85050882  1
  Li  Li46  1  0.50344233  0.00688466  0.85050933  1
  Li  Li47  1  0.49655674  0.50344671  0.35050882  1
  Li  Li48  1  0.00688998  0.50344671  0.35050882  1
  Li  Li49  1  0.49655767  0.99311534  0.35050933  1
  Li  Li50  1  0.66666997  0.33333995  0.94528590  1
  Li  Li51  1  0.33333003  0.66666005  0.44528590  1
  Li  Li52  1  0.33333003  0.66666005  0.05471410  1
  Li  Li53  1  0.66666997  0.33333995  0.55471410  1
  Li  Li54  1  0.00000217  0.00000434  0.14995523  1
  Li  Li55  1  0.99999783  0.99999566  0.64995523  1
  Li  Li56  1  0.99999783  0.99999566  0.85004477  1
  Li  Li57  1  0.00000217  0.00000434  0.35004477  1
  Li  Li58  1  0.36312731  0.18157921  0.25000000  1
  Li  Li59  1  0.81845189  0.18157921  0.25000000  1
  Li  Li60  1  0.81844019  0.63688037  0.25000000  1
  Li  Li61  1  0.63687269  0.81842079  0.75000000  1
  Li  Li62  1  0.18154811  0.81842079  0.75000000  1
  Li  Li63  1  0.18155981  0.36311963  0.75000000  1
