# generated using pymatgen
data_H2He3Li9
_symmetry_space_group_name_H-M   'P 1'
_cell_length_a   7.07812926
_cell_length_b   7.07804137
_cell_length_c   10.09555161
_cell_angle_alpha   90.00000000
_cell_angle_beta   90.00000000
_cell_angle_gamma   120.00132418
_symmetry_Int_Tables_number   1
_chemical_formula_structural   H2He3Li9
_chemical_formula_sum   'H4 He6 Li18'
_cell_volume   438.01247121
_cell_formula_units_Z   2
loop_
 _symmetry_equiv_pos_site_id
 _symmetry_equiv_pos_as_xyz
  1  'x, y, z'
loop_
 _atom_site_type_symbol
 _atom_site_label
 _atom_site_symmetry_multiplicity
 _atom_site_fract_x
 _atom_site_fract_y
 _atom_site_fract_z
 _atom_site_occupancy
  H  H0  1  0.66666933  0.33333452  0.02360848  1
  H  H1  1  0.33333067  0.66666548  0.52360848  1
  H  H2  1  0.33333067  0.66666548  0.97639152  1
  H  H3  1  0.66666933  0.33333452  0.47639152  1
  He  He4  1  0.07342871  0.78246100  0.25000000  1
  He  He5  1  0.21753729  0.29096888  0.25000000  1
  He  He6  1  0.70902835  0.92656097  0.25000000  1
  He  He7  1  0.92657129  0.21753900  0.75000000  1
  He  He8  1  0.78246271  0.70903112  0.75000000  1
  He  He9  1  0.29097165  0.07343903  0.75000000  1
  Li  Li10  1  0.26895764  0.06612132  0.25000000  1
  Li  Li11  1  0.93388141  0.20283017  0.25000000  1
  Li  Li12  1  0.79716105  0.73103693  0.25000000  1
  Li  Li13  1  0.73104236  0.93387868  0.75000000  1
  Li  Li14  1  0.06611859  0.79716983  0.75000000  1
  Li  Li15  1  0.20283895  0.26896307  0.75000000  1
  Li  Li16  1  0.07522668  0.64867558  0.10331170  1
  Li  Li17  1  0.35132510  0.42655554  0.10331274  1
  Li  Li18  1  0.57344885  0.92477194  0.10331264  1
  Li  Li19  1  0.92477332  0.35132442  0.60331170  1
  Li  Li20  1  0.64867490  0.57344446  0.60331274  1
  Li  Li21  1  0.42655115  0.07522806  0.60331264  1
  Li  Li22  1  0.92477332  0.35132442  0.89668830  1
  Li  Li23  1  0.64867490  0.57344446  0.89668726  1
  Li  Li24  1  0.42655115  0.07522806  0.89668736  1
  Li  Li25  1  0.07522668  0.64867558  0.39668830  1
  Li  Li26  1  0.35132510  0.42655554  0.39668726  1
  Li  Li27  1  0.57344885  0.92477194  0.39668736  1
