# generated using pymatgen
data_H2He2Li10Be3
_symmetry_space_group_name_H-M   'P 1'
_cell_length_a   13.69547103
_cell_length_b   13.69547103
_cell_length_c   13.69547103
_cell_angle_alpha   163.53687747
_cell_angle_beta   163.53687747
_cell_angle_gamma   23.36389943
_symmetry_Int_Tables_number   1
_chemical_formula_structural   H2He2Li10Be3
_chemical_formula_sum   'H2 He2 Li10 Be3'
_cell_volume   206.26704158
_cell_formula_units_Z   1
loop_
 _symmetry_equiv_pos_site_id
 _symmetry_equiv_pos_as_xyz
  1  'x, y, z'
loop_
 _atom_site_type_symbol
 _atom_site_label
 _atom_site_symmetry_multiplicity
 _atom_site_fract_x
 _atom_site_fract_y
 _atom_site_fract_z
 _atom_site_occupancy
  H  H0  1  0.41803827  0.41803827  -0.00000000  1
  H  H1  1  0.58196173  0.58196173  -0.00000000  1
  He  He2  1  0.75000000  0.25000000  0.50000000  1
  He  He3  1  0.25000000  0.75000000  0.50000000  1
  Li  Li4  1  0.50000000  -0.00000000  0.50000000  1
  Li  Li5  1  0.00000000  0.50000000  0.50000000  1
  Li  Li6  1  0.07328508  0.07328508  -0.00000000  1
  Li  Li7  1  0.92671492  0.92671492  -0.00000000  1
  Li  Li8  1  0.64338737  0.14338737  0.50000000  1
  Li  Li9  1  0.14338737  0.64338737  0.50000000  1
  Li  Li10  1  0.35661263  0.85661263  0.50000000  1
  Li  Li11  1  0.85661263  0.35661263  0.50000000  1
  Li  Li12  1  0.22576229  0.22576229  -0.00000000  1
  Li  Li13  1  0.77423771  0.77423771  -0.00000000  1
  Be  Be14  1  0.00000000  -0.00000000  -0.00000000  1
  Be  Be15  1  0.15821143  0.15821143  0.00000000  1
  Be  Be16  1  0.84178857  0.84178857  0.00000000  1
