# generated using pymatgen
data_H8He2Li3
_symmetry_space_group_name_H-M   'P 1'
_cell_length_a   5.54618795
_cell_length_b   5.54618795
_cell_length_c   7.57718099
_cell_angle_alpha   68.61983991
_cell_angle_beta   68.61983991
_cell_angle_gamma   61.02448107
_symmetry_Int_Tables_number   1
_chemical_formula_structural   H8He2Li3
_chemical_formula_sum   'H8 He2 Li3'
_cell_volume   184.74606368
_cell_formula_units_Z   1
loop_
 _symmetry_equiv_pos_site_id
 _symmetry_equiv_pos_as_xyz
  1  'x, y, z'
loop_
 _atom_site_type_symbol
 _atom_site_label
 _atom_site_symmetry_multiplicity
 _atom_site_fract_x
 _atom_site_fract_y
 _atom_site_fract_z
 _atom_site_occupancy
  H  H0  1  0.28420659  0.23402969  0.71656309  1
  H  H1  1  0.26597031  0.21579341  0.28343691  1
  H  H2  1  0.71579341  0.76597031  0.28343691  1
  H  H3  1  0.73402969  0.78420659  0.71656309  1
  H  H4  1  0.27825022  0.77825022  0.71176108  1
  H  H5  1  0.72174978  0.22174978  0.28823892  1
  H  H6  1  0.32482600  0.82482600  0.01739761  1
  H  H7  1  0.67517400  0.17517400  0.98260239  1
  He  He8  1  0.40428708  0.90428708  0.79180463  1
  He  He9  1  0.59571292  0.09571292  0.20819537  1
  Li  Li10  1  0.00000000  0.50000000  0.00000000  1
  Li  Li11  1  0.22237492  0.72237492  0.35788953  1
  Li  Li12  1  0.77762508  0.27762508  0.64211047  1
