# generated using pymatgen
data_HHe2Li4
_symmetry_space_group_name_H-M   'P 1'
_cell_length_a   6.73633847
_cell_length_b   6.73633847
_cell_length_c   5.94375904
_cell_angle_alpha   66.88303927
_cell_angle_beta   66.88303927
_cell_angle_gamma   28.58570682
_symmetry_Int_Tables_number   1
_chemical_formula_structural   HHe2Li4
_chemical_formula_sum   'H1 He2 Li4'
_cell_volume   117.98622455
_cell_formula_units_Z   1
loop_
 _symmetry_equiv_pos_site_id
 _symmetry_equiv_pos_as_xyz
  1  'x, y, z'
loop_
 _atom_site_type_symbol
 _atom_site_label
 _atom_site_symmetry_multiplicity
 _atom_site_fract_x
 _atom_site_fract_y
 _atom_site_fract_z
 _atom_site_occupancy
  H  H0  1  0.00000000  0.00000000  0.00000000  1
  He  He1  1  0.74158216  0.74158216  0.31578274  1
  He  He2  1  0.25841784  0.25841784  0.68421726  1
  Li  Li3  1  0.63914864  0.63914864  0.02006712  1
  Li  Li4  1  0.36085136  0.36085136  0.97993288  1
  Li  Li5  1  0.89265484  0.89265484  0.44606670  1
  Li  Li6  1  0.10734516  0.10734516  0.55393330  1
