# generated using pymatgen
data_H2He4Li
_symmetry_space_group_name_H-M   'P 1'
_cell_length_a   7.34592839
_cell_length_b   7.34592839
_cell_length_c   7.34592839
_cell_angle_alpha   144.97357254
_cell_angle_beta   144.97357254
_cell_angle_gamma   50.37390905
_symmetry_Int_Tables_number   1
_chemical_formula_structural   H2He4Li
_chemical_formula_sum   'H2 He4 Li1'
_cell_volume   129.93640079
_cell_formula_units_Z   1
loop_
 _symmetry_equiv_pos_site_id
 _symmetry_equiv_pos_as_xyz
  1  'x, y, z'
loop_
 _atom_site_type_symbol
 _atom_site_label
 _atom_site_symmetry_multiplicity
 _atom_site_fract_x
 _atom_site_fract_y
 _atom_site_fract_z
 _atom_site_occupancy
  H  H0  1  0.64932106  0.64932106  -0.00000000  1
  H  H1  1  0.35067894  0.35067894  0.00000000  1
  He  He2  1  0.00000000  0.50000000  0.50000000  1
  He  He3  1  0.50000000  -0.00000000  0.50000000  1
  He  He4  1  0.85422295  0.85422295  -0.00000000  1
  He  He5  1  0.14577705  0.14577705  -0.00000000  1
  Li  Li6  1  0.00000000  -0.00000000  -0.00000000  1
