# generated using pymatgen
data_H7HeLiBe
_symmetry_space_group_name_H-M   'P 1'
_cell_length_a   6.05955778
_cell_length_b   8.57656283
_cell_length_c   12.70990756
_cell_angle_alpha   90.00000000
_cell_angle_beta   90.00000000
_cell_angle_gamma   90.00000000
_symmetry_Int_Tables_number   1
_chemical_formula_structural   H7HeLiBe
_chemical_formula_sum   'H28 He4 Li4 Be4'
_cell_volume   660.53615851
_cell_formula_units_Z   4
loop_
 _symmetry_equiv_pos_site_id
 _symmetry_equiv_pos_as_xyz
  1  'x, y, z'
loop_
 _atom_site_type_symbol
 _atom_site_label
 _atom_site_symmetry_multiplicity
 _atom_site_fract_x
 _atom_site_fract_y
 _atom_site_fract_z
 _atom_site_occupancy
  H  H0  1  0.50000000  0.14148169  -0.00000000  1
  H  H1  1  0.50000000  0.35851831  0.50000000  1
  H  H2  1  0.50000000  0.85851831  0.00000000  1
  H  H3  1  0.50000000  0.64148169  0.50000000  1
  H  H4  1  0.12652732  0.00000000  0.07113859  1
  H  H5  1  0.87347268  0.50000000  0.57113859  1
  H  H6  1  0.12652732  0.50000000  0.42886141  1
  H  H7  1  0.87347268  0.00000000  0.92886141  1
  H  H8  1  0.49892717  0.00000000  0.80548017  1
  H  H9  1  0.50107283  0.50000000  0.30548017  1
  H  H10  1  0.49892717  0.50000000  0.69451983  1
  H  H11  1  0.50107283  -0.00000000  0.19451983  1
  H  H12  1  0.09281549  0.00000000  0.76101894  1
  H  H13  1  0.90718451  0.50000000  0.26101894  1
  H  H14  1  0.09281549  0.50000000  0.73898106  1
  H  H15  1  0.90718451  0.00000000  0.23898106  1
  H  H16  1  0.16049537  0.23185326  0.89051536  1
  H  H17  1  0.83950463  0.26814674  0.39051536  1
  H  H18  1  0.16049537  0.26814674  0.60948464  1
  H  H19  1  0.83950463  0.23185326  0.10948464  1
  H  H20  1  0.83950463  0.76814674  0.10948464  1
  H  H21  1  0.16049537  0.73185326  0.60948464  1
  H  H22  1  0.83950463  0.73185326  0.39051536  1
  H  H23  1  0.16049537  0.76814674  0.89051536  1
  H  H24  1  0.87421702  -0.00000000  0.58416352  1
  H  H25  1  0.12578298  0.50000000  0.08416352  1
  H  H26  1  0.87421702  0.50000000  0.91583648  1
  H  H27  1  0.12578298  -0.00000000  0.41583648  1
  He  He28  1  0.78882092  0.25000000  0.75000000  1
  He  He29  1  0.21117908  0.25000000  0.25000000  1
  He  He30  1  0.21117908  0.75000000  0.25000000  1
  He  He31  1  0.78882092  0.75000000  0.75000000  1
  Li  Li32  1  0.23676076  -0.00000000  0.59400717  1
  Li  Li33  1  0.76323924  0.50000000  0.09400717  1
  Li  Li34  1  0.23676076  0.50000000  0.90599283  1
  Li  Li35  1  0.76323924  0.00000000  0.40599283  1
  Be  Be36  1  0.25085903  -0.00000000  0.91500166  1
  Be  Be37  1  0.74914097  0.50000000  0.41500166  1
  Be  Be38  1  0.25085903  0.50000000  0.58499834  1
  Be  Be39  1  0.74914097  0.00000000  0.08499834  1
