# generated using pymatgen
data_HHe4Li
_symmetry_space_group_name_H-M   'P 1'
_cell_length_a   12.32547550
_cell_length_b   12.32547550
_cell_length_c   12.32547550
_cell_angle_alpha   126.64580895
_cell_angle_beta   126.64580895
_cell_angle_gamma   78.82927561
_symmetry_Int_Tables_number   1
_chemical_formula_structural   HHe4Li
_chemical_formula_sum   'H8 He32 Li8'
_cell_volume   1166.34894085
_cell_formula_units_Z   8
loop_
 _symmetry_equiv_pos_site_id
 _symmetry_equiv_pos_as_xyz
  1  'x, y, z'
loop_
 _atom_site_type_symbol
 _atom_site_label
 _atom_site_symmetry_multiplicity
 _atom_site_fract_x
 _atom_site_fract_y
 _atom_site_fract_z
 _atom_site_occupancy
  H  H0  1  0.21297066  0.25000000  0.96297066  1
  H  H1  1  0.28702934  0.75000000  0.53702934  1
  H  H2  1  0.25000000  0.28702934  0.53702934  1
  H  H3  1  0.75000000  0.21297066  0.96297066  1
  H  H4  1  0.78702934  0.75000000  0.03702934  1
  H  H5  1  0.71297066  0.25000000  0.46297066  1
  H  H6  1  0.75000000  0.71297066  0.46297066  1
  H  H7  1  0.25000000  0.78702934  0.03702934  1
  He  He8  1  0.66659353  0.22787311  0.07197026  1
  He  He9  1  0.15590286  0.09462328  0.42802974  1
  He  He10  1  0.22787311  0.15590286  0.06127958  1
  He  He11  1  0.09462328  0.66659353  0.43872042  1
  He  He12  1  0.83340647  0.40537672  0.06127958  1
  He  He13  1  0.34409714  0.27212689  0.43872042  1
  He  He14  1  0.27212689  0.83340647  0.42802974  1
  He  He15  1  0.40537672  0.34409714  0.07197026  1
  He  He16  1  0.33340647  0.77212689  0.92802974  1
  He  He17  1  0.84409714  0.90537672  0.57197026  1
  He  He18  1  0.77212689  0.84409714  0.93872042  1
  He  He19  1  0.90537672  0.33340647  0.56127958  1
  He  He20  1  0.16659353  0.59462328  0.93872042  1
  He  He21  1  0.65590286  0.72787311  0.56127958  1
  He  He22  1  0.72787311  0.16659353  0.57197026  1
  He  He23  1  0.59462328  0.65590286  0.92802974  1
  He  He24  1  0.90971433  0.11771807  0.01832925  1
  He  He25  1  0.09938882  0.39138508  0.48167075  1
  He  He26  1  0.11771807  0.09938882  0.70800374  1
  He  He27  1  0.39138508  0.90971433  0.79199626  1
  He  He28  1  0.59028567  0.10861492  0.70800374  1
  He  He29  1  0.40061118  0.38228193  0.79199626  1
  He  He30  1  0.38228193  0.59028567  0.48167075  1
  He  He31  1  0.10861492  0.40061118  0.01832925  1
  He  He32  1  0.09028567  0.88228193  0.98167075  1
  He  He33  1  0.90061118  0.60861492  0.51832925  1
  He  He34  1  0.88228193  0.90061118  0.29199626  1
  He  He35  1  0.60861492  0.09028567  0.20800374  1
  He  He36  1  0.40971433  0.89138508  0.29199626  1
  He  He37  1  0.59938882  0.61771807  0.20800374  1
  He  He38  1  0.61771807  0.40971433  0.51832925  1
  He  He39  1  0.89138508  0.59938882  0.98167075  1
  Li  Li40  1  0.12500000  0.37500000  0.25000000  1
  Li  Li41  1  0.37500000  0.12500000  0.75000000  1
  Li  Li42  1  0.87500000  0.62500000  0.75000000  1
  Li  Li43  1  0.62500000  0.87500000  0.25000000  1
  Li  Li44  1  0.37500000  0.62500000  0.25000000  1
  Li  Li45  1  0.62500000  0.37500000  0.75000000  1
  Li  Li46  1  0.12500000  0.87500000  0.75000000  1
  Li  Li47  1  0.87500000  0.12500000  0.25000000  1
