# generated using pymatgen
data_HHe
_symmetry_space_group_name_H-M   'P 1'
_cell_length_a   5.23524025
_cell_length_b   5.23524025
_cell_length_c   5.23524025
_cell_angle_alpha   90.00000000
_cell_angle_beta   90.00000000
_cell_angle_gamma   90.00000000
_symmetry_Int_Tables_number   1
_chemical_formula_structural   HHe
_chemical_formula_sum   'H4 He4'
_cell_volume   143.48610637
_cell_formula_units_Z   4
loop_
 _symmetry_equiv_pos_site_id
 _symmetry_equiv_pos_as_xyz
  1  'x, y, z'
loop_
 _atom_site_type_symbol
 _atom_site_label
 _atom_site_symmetry_multiplicity
 _atom_site_fract_x
 _atom_site_fract_y
 _atom_site_fract_z
 _atom_site_occupancy
  H  H0  1  0.14013490  0.14013490  0.14013490  1
  H  H1  1  0.35986510  0.85986510  0.64013490  1
  H  H2  1  0.85986510  0.64013490  0.35986510  1
  H  H3  1  0.64013490  0.35986510  0.85986510  1
  He  He4  1  0.83861437  0.83861437  0.83861437  1
  He  He5  1  0.66138563  0.16138563  0.33861437  1
  He  He6  1  0.16138563  0.33861437  0.66138563  1
  He  He7  1  0.33861437  0.66138563  0.16138563  1
