# generated using pymatgen
data_HHe4Li
_symmetry_space_group_name_H-M   'P 1'
_cell_length_a   4.76782286
_cell_length_b   4.76782286
_cell_length_c   6.63909356
_cell_angle_alpha   90.00000000
_cell_angle_beta   90.00000000
_cell_angle_gamma   113.38333050
_symmetry_Int_Tables_number   1
_chemical_formula_structural   HHe4Li
_chemical_formula_sum   'H2 He8 Li2'
_cell_volume   138.52566697
_cell_formula_units_Z   2
loop_
 _symmetry_equiv_pos_site_id
 _symmetry_equiv_pos_as_xyz
  1  'x, y, z'
loop_
 _atom_site_type_symbol
 _atom_site_label
 _atom_site_symmetry_multiplicity
 _atom_site_fract_x
 _atom_site_fract_y
 _atom_site_fract_z
 _atom_site_occupancy
  H  H0  1  0.00000000  0.00000000  0.00000000  1
  H  H1  1  -0.00000000  -0.00000000  0.50000000  1
  He  He2  1  0.24963175  0.75036825  0.93571712  1
  He  He3  1  0.75036825  0.24963175  0.43571712  1
  He  He4  1  0.24963175  0.75036825  0.56428288  1
  He  He5  1  0.75036825  0.24963175  0.06428288  1
  He  He6  1  0.69521599  0.77355030  0.75000000  1
  He  He7  1  0.30478401  0.22644970  0.25000000  1
  He  He8  1  0.22644970  0.30478401  0.75000000  1
  He  He9  1  0.77355030  0.69521599  0.25000000  1
  Li  Li10  1  0.34976526  0.65023474  0.75000000  1
  Li  Li11  1  0.65023474  0.34976526  0.25000000  1
