# generated using pymatgen
data_HHe3
_symmetry_space_group_name_H-M   'P 1'
_cell_length_a   4.54508171
_cell_length_b   5.58109329
_cell_length_c   7.00388549
_cell_angle_alpha   90.00000000
_cell_angle_beta   90.00000000
_cell_angle_gamma   90.00000000
_symmetry_Int_Tables_number   1
_chemical_formula_structural   HHe3
_chemical_formula_sum   'H4 He12'
_cell_volume   177.66423656
_cell_formula_units_Z   4
loop_
 _symmetry_equiv_pos_site_id
 _symmetry_equiv_pos_as_xyz
  1  'x, y, z'
loop_
 _atom_site_type_symbol
 _atom_site_label
 _atom_site_symmetry_multiplicity
 _atom_site_fract_x
 _atom_site_fract_y
 _atom_site_fract_z
 _atom_site_occupancy
  H  H0  1  0.56550179  0.87930892  0.75000000  1
  H  H1  1  0.06550179  0.62069108  0.25000000  1
  H  H2  1  0.43449821  0.12069108  0.25000000  1
  H  H3  1  0.93449821  0.37930892  0.75000000  1
  He  He4  1  0.65830989  0.17810991  0.93942153  1
  He  He5  1  0.15830989  0.32189009  0.06057847  1
  He  He6  1  0.34169011  0.82189009  0.43942153  1
  He  He7  1  0.84169011  0.67810991  0.56057847  1
  He  He8  1  0.34169011  0.82189009  0.06057847  1
  He  He9  1  0.84169011  0.67810991  0.93942153  1
  He  He10  1  0.65830989  0.17810991  0.56057847  1
  He  He11  1  0.15830989  0.32189009  0.43942153  1
  He  He12  1  0.14464504  0.03329505  0.75000000  1
  He  He13  1  0.64464504  0.46670495  0.25000000  1
  He  He14  1  0.85535496  0.96670495  0.25000000  1
  He  He15  1  0.35535496  0.53329505  0.75000000  1
