# generated using pymatgen
data_H7He2Li2
_symmetry_space_group_name_H-M   'P 1'
_cell_length_a   7.50592766
_cell_length_b   7.50592766
_cell_length_c   7.50592766
_cell_angle_alpha   60.00000000
_cell_angle_beta   60.00000000
_cell_angle_gamma   60.00000000
_symmetry_Int_Tables_number   1
_chemical_formula_structural   H7He2Li2
_chemical_formula_sum   'H14 He4 Li4'
_cell_volume   299.01854601
_cell_formula_units_Z   2
loop_
 _symmetry_equiv_pos_site_id
 _symmetry_equiv_pos_as_xyz
  1  'x, y, z'
loop_
 _atom_site_type_symbol
 _atom_site_label
 _atom_site_symmetry_multiplicity
 _atom_site_fract_x
 _atom_site_fract_y
 _atom_site_fract_z
 _atom_site_occupancy
  H  H0  1  0.34159553  0.90840447  0.40840447  1
  H  H1  1  0.90840447  0.34159553  0.84159553  1
  H  H2  1  0.90840447  0.34159553  0.40840447  1
  H  H3  1  0.34159553  0.90840447  0.84159553  1
  H  H4  1  0.34159553  0.34159553  0.40840447  1
  H  H5  1  0.90840447  0.90840447  0.84159553  1
  H  H6  1  0.65840447  0.09159553  0.15840447  1
  H  H7  1  0.09159553  0.65840447  0.59159553  1
  H  H8  1  0.09159553  0.65840447  0.15840447  1
  H  H9  1  0.65840447  0.09159553  0.59159553  1
  H  H10  1  0.65840447  0.65840447  0.59159553  1
  H  H11  1  0.09159553  0.09159553  0.15840447  1
  H  H12  1  0.37500000  0.37500000  0.87500000  1
  H  H13  1  0.62500000  0.62500000  0.12500000  1
  He  He14  1  0.00000000  0.00000000  0.00000000  1
  He  He15  1  0.00000000  0.00000000  0.50000000  1
  He  He16  1  0.50000000  0.00000000  0.50000000  1
  He  He17  1  0.00000000  0.50000000  0.50000000  1
  Li  Li18  1  0.50000000  0.50000000  0.50000000  1
  Li  Li19  1  0.50000000  0.50000000  0.00000000  1
  Li  Li20  1  0.00000000  0.50000000  0.00000000  1
  Li  Li21  1  0.50000000  0.00000000  0.00000000  1
