# generated using pymatgen
data_H2He9Li4
_symmetry_space_group_name_H-M   'P 1'
_cell_length_a   10.55882501
_cell_length_b   7.43472224
_cell_length_c   11.26311448
_cell_angle_alpha   71.51453222
_cell_angle_beta   90.00000000
_cell_angle_gamma   90.00000000
_symmetry_Int_Tables_number   1
_chemical_formula_structural   H2He9Li4
_chemical_formula_sum   'H8 He36 Li16'
_cell_volume   838.55637273
_cell_formula_units_Z   4
loop_
 _symmetry_equiv_pos_site_id
 _symmetry_equiv_pos_as_xyz
  1  'x, y, z'
loop_
 _atom_site_type_symbol
 _atom_site_label
 _atom_site_symmetry_multiplicity
 _atom_site_fract_x
 _atom_site_fract_y
 _atom_site_fract_z
 _atom_site_occupancy
  H  H0  1  0.17871757  0.78261537  0.12792275  1
  H  H1  1  0.67871757  0.21738463  0.37207725  1
  H  H2  1  0.82128243  0.21738463  0.87207725  1
  H  H3  1  0.32128243  0.78261537  0.62792275  1
  H  H4  1  0.17626181  0.34643041  0.11392076  1
  H  H5  1  0.67626181  0.65356959  0.38607924  1
  H  H6  1  0.82373819  0.65356959  0.88607924  1
  H  H7  1  0.32373819  0.34643041  0.61392076  1
  He  He8  1  0.01620334  0.78732364  0.15493019  1
  He  He9  1  0.51620334  0.21267636  0.34506981  1
  He  He10  1  0.98379666  0.21267636  0.84506981  1
  He  He11  1  0.48379666  0.78732364  0.65493019  1
  He  He12  1  0.01657300  0.30523978  0.15905454  1
  He  He13  1  0.51657300  0.69476022  0.34094546  1
  He  He14  1  0.98342700  0.69476022  0.84094546  1
  He  He15  1  0.48342700  0.30523978  0.65905454  1
  He  He16  1  0.99442405  0.92295121  0.39328211  1
  He  He17  1  0.49442405  0.07704879  0.10671789  1
  He  He18  1  0.00557595  0.07704879  0.60671789  1
  He  He19  1  0.50557595  0.92295121  0.89328211  1
  He  He20  1  0.00822337  0.43511091  0.39240183  1
  He  He21  1  0.50822337  0.56488909  0.10759817  1
  He  He22  1  0.99177663  0.56488909  0.60759817  1
  He  He23  1  0.49177663  0.43511091  0.89240183  1
  He  He24  1  0.26025401  0.76986969  0.26842889  1
  He  He25  1  0.76025401  0.23013031  0.23157111  1
  He  He26  1  0.73974599  0.23013031  0.73157111  1
  He  He27  1  0.23974599  0.76986969  0.76842889  1
  He  He28  1  0.23274815  0.92698774  0.98122107  1
  He  He29  1  0.73274815  0.07301226  0.51877893  1
  He  He30  1  0.76725185  0.07301226  0.01877893  1
  He  He31  1  0.26725185  0.92698774  0.48122107  1
  He  He32  1  0.26131937  0.21023122  0.24731706  1
  He  He33  1  0.76131937  0.78976878  0.25268294  1
  He  He34  1  0.73868063  0.78976878  0.75268294  1
  He  He35  1  0.23868063  0.21023122  0.74731706  1
  He  He36  1  0.22950539  0.36248555  0.96242193  1
  He  He37  1  0.72950539  0.63751445  0.53757807  1
  He  He38  1  0.77049461  0.63751445  0.03757807  1
  He  He39  1  0.27049461  0.36248555  0.46242193  1
  He  He40  1  0.23955195  0.56674351  0.11611955  1
  He  He41  1  0.73955195  0.43325649  0.38388045  1
  He  He42  1  0.76044805  0.43325649  0.88388045  1
  He  He43  1  0.26044805  0.56674351  0.61611955  1
  Li  Li44  1  0.10969451  0.47715031  0.78515848  1
  Li  Li45  1  0.60969451  0.52284969  0.71484152  1
  Li  Li46  1  0.89030549  0.52284969  0.21484152  1
  Li  Li47  1  0.39030549  0.47715031  0.28515848  1
  Li  Li48  1  0.09618625  0.97757244  0.80520003  1
  Li  Li49  1  0.59618625  0.02242756  0.69479997  1
  Li  Li50  1  0.90381375  0.02242756  0.19479997  1
  Li  Li51  1  0.40381375  0.97757244  0.30520003  1
  Li  Li52  1  0.12670153  0.66040463  0.43814716  1
  Li  Li53  1  0.62670153  0.33959537  0.06185284  1
  Li  Li54  1  0.87329847  0.33959537  0.56185284  1
  Li  Li55  1  0.37329847  0.66040463  0.93814716  1
  Li  Li56  1  0.12220540  0.16154537  0.41712927  1
  Li  Li57  1  0.62220540  0.83845463  0.08287073  1
  Li  Li58  1  0.87779460  0.83845463  0.58287073  1
  Li  Li59  1  0.37779460  0.16154537  0.91712927  1
