# generated using pymatgen
data_HHeLiBe5
_symmetry_space_group_name_H-M   'P 1'
_cell_length_a   5.37778889
_cell_length_b   11.07940681
_cell_length_c   15.43364137
_cell_angle_alpha   90.00000000
_cell_angle_beta   90.00000000
_cell_angle_gamma   90.00000000
_symmetry_Int_Tables_number   1
_chemical_formula_structural   HHeLiBe5
_chemical_formula_sum   'H8 He8 Li8 Be40'
_cell_volume   919.57819106
_cell_formula_units_Z   8
loop_
 _symmetry_equiv_pos_site_id
 _symmetry_equiv_pos_as_xyz
  1  'x, y, z'
loop_
 _atom_site_type_symbol
 _atom_site_label
 _atom_site_symmetry_multiplicity
 _atom_site_fract_x
 _atom_site_fract_y
 _atom_site_fract_z
 _atom_site_occupancy
  H  H0  1  0.04334018  0.14657711  0.23689042  1
  H  H1  1  0.45665982  0.64657711  0.76310958  1
  H  H2  1  0.95665982  0.35342289  0.73689042  1
  H  H3  1  0.54334018  0.85342289  0.26310958  1
  H  H4  1  0.95665982  0.85342289  0.76310958  1
  H  H5  1  0.54334018  0.35342289  0.23689042  1
  H  H6  1  0.04334018  0.64657711  0.26310958  1
  H  H7  1  0.45665982  0.14657711  0.73689042  1
  He  He8  1  0.99024546  0.35880565  0.05321810  1
  He  He9  1  0.50975454  0.85880565  0.94678190  1
  He  He10  1  0.00975454  0.14119435  0.55321810  1
  He  He11  1  0.49024546  0.64119435  0.44678190  1
  He  He12  1  0.00975454  0.64119435  0.94678190  1
  He  He13  1  0.49024546  0.14119435  0.05321810  1
  He  He14  1  0.99024546  0.85880565  0.44678190  1
  He  He15  1  0.50975454  0.35880565  0.55321810  1
  Li  Li16  1  0.99337712  0.40288640  0.40473532  1
  Li  Li17  1  0.50662288  0.90288640  0.59526468  1
  Li  Li18  1  0.00662288  0.09711360  0.90473532  1
  Li  Li19  1  0.49337712  0.59711360  0.09526468  1
  Li  Li20  1  0.00662288  0.59711360  0.59526468  1
  Li  Li21  1  0.49337712  0.09711360  0.40473532  1
  Li  Li22  1  0.99337712  0.90288640  0.09526468  1
  Li  Li23  1  0.50662288  0.40288640  0.90473532  1
  Be  Be24  1  0.93373030  0.32967271  0.30245251  1
  Be  Be25  1  0.56626970  0.82967271  0.69754749  1
  Be  Be26  1  0.06626970  0.17032729  0.80245251  1
  Be  Be27  1  0.43373030  0.67032729  0.19754749  1
  Be  Be28  1  0.06626970  0.67032729  0.69754749  1
  Be  Be29  1  0.43373030  0.17032729  0.30245251  1
  Be  Be30  1  0.93373030  0.82967271  0.19754749  1
  Be  Be31  1  0.56626970  0.32967271  0.80245251  1
  Be  Be32  1  0.69806559  0.45909568  0.43931338  1
  Be  Be33  1  0.80193441  0.95909568  0.56068662  1
  Be  Be34  1  0.30193441  0.04090432  0.93931338  1
  Be  Be35  1  0.19806559  0.54090432  0.06068662  1
  Be  Be36  1  0.30193441  0.54090432  0.56068662  1
  Be  Be37  1  0.19806559  0.04090432  0.43931338  1
  Be  Be38  1  0.69806559  0.95909568  0.06068662  1
  Be  Be39  1  0.80193441  0.45909568  0.93931338  1
  Be  Be40  1  0.69456879  0.47504109  0.12572059  1
  Be  Be41  1  0.80543121  0.97504109  0.87427941  1
  Be  Be42  1  0.30543121  0.02495891  0.62572059  1
  Be  Be43  1  0.19456879  0.52495891  0.37427941  1
  Be  Be44  1  0.30543121  0.52495891  0.87427941  1
  Be  Be45  1  0.19456879  0.02495891  0.12572059  1
  Be  Be46  1  0.69456879  0.97504109  0.37427941  1
  Be  Be47  1  0.80543121  0.47504109  0.62572059  1
  Be  Be48  1  0.74974184  0.23516954  0.15030825  1
  Be  Be49  1  0.75025816  0.73516954  0.84969175  1
  Be  Be50  1  0.25025816  0.26483046  0.65030825  1
  Be  Be51  1  0.24974184  0.76483046  0.34969175  1
  Be  Be52  1  0.25025816  0.76483046  0.84969175  1
  Be  Be53  1  0.24974184  0.26483046  0.15030825  1
  Be  Be54  1  0.74974184  0.73516954  0.34969175  1
  Be  Be55  1  0.75025816  0.23516954  0.65030825  1
  Be  Be56  1  0.64472560  0.19219819  0.48002089  1
  Be  Be57  1  0.85527440  0.69219819  0.51997911  1
  Be  Be58  1  0.35527440  0.30780181  0.98002089  1
  Be  Be59  1  0.14472560  0.80780181  0.01997911  1
  Be  Be60  1  0.35527440  0.80780181  0.51997911  1
  Be  Be61  1  0.14472560  0.30780181  0.48002089  1
  Be  Be62  1  0.64472560  0.69219819  0.01997911  1
  Be  Be63  1  0.85527440  0.19219819  0.98002089  1
