# generated using pymatgen
data_H2He
_symmetry_space_group_name_H-M   'P 1'
_cell_length_a   6.51921018
_cell_length_b   6.51921018
_cell_length_c   3.46655063
_cell_angle_alpha   90.00000000
_cell_angle_beta   90.00000000
_cell_angle_gamma   120.00108551
_symmetry_Int_Tables_number   1
_chemical_formula_structural   H2He
_chemical_formula_sum   'H6 He3'
_cell_volume   127.58904704
_cell_formula_units_Z   3
loop_
 _symmetry_equiv_pos_site_id
 _symmetry_equiv_pos_as_xyz
  1  'x, y, z'
loop_
 _atom_site_type_symbol
 _atom_site_label
 _atom_site_symmetry_multiplicity
 _atom_site_fract_x
 _atom_site_fract_y
 _atom_site_fract_z
 _atom_site_occupancy
  H  H0  1  0.26447934  0.00000661  0.00000000  1
  H  H1  1  0.00000661  0.26447934  0.00000000  1
  H  H2  1  0.73551404  0.73551404  0.00000000  1
  H  H3  1  0.60553231  0.99999872  0.50000000  1
  H  H4  1  0.99999872  0.60553231  0.50000000  1
  H  H5  1  0.39447105  0.39447105  0.50000000  1
  He  He6  1  0.33331339  0.66668669  0.00000000  1
  He  He7  1  0.66668669  0.33331339  0.00000000  1
  He  He8  1  0.99999785  0.99999785  0.50000000  1
