# generated using pymatgen
data_H2
_symmetry_space_group_name_H-M   'P 1'
_cell_length_a   4.50271607
_cell_length_b   4.50256821
_cell_length_c   5.05348474
_cell_angle_alpha   89.99957532
_cell_angle_beta   89.99957555
_cell_angle_gamma   119.99995263
_symmetry_Int_Tables_number   1
_chemical_formula_structural   H2
_chemical_formula_sum   H3
_cell_volume   88.72717609
_cell_formula_units_Z   1
loop_
 _symmetry_equiv_pos_site_id
 _symmetry_equiv_pos_as_xyz
  1  'x, y, z'
loop_
 _atom_site_type_symbol
 _atom_site_label
 _atom_site_symmetry_multiplicity
 _atom_site_fract_x
 _atom_site_fract_y
 _atom_site_fract_z
 _atom_site_occupancy
  H  H0  1  0.22019553  -0.00000316  0.33330694  1
  H  H1  1  0.00000306  0.22020802  0.66664031  1
  H  H2  1  0.77980141  0.77979514  -0.00001391  1
