# generated using pymatgen
data_HHe3
_symmetry_space_group_name_H-M   'P 1'
_cell_length_a   5.71414366
_cell_length_b   5.71414366
_cell_length_c   9.14678951
_cell_angle_alpha   90.00000000
_cell_angle_beta   90.00000000
_cell_angle_gamma   147.42615167
_symmetry_Int_Tables_number   1
_chemical_formula_structural   HHe3
_chemical_formula_sum   'H2 He6'
_cell_volume   160.79217820
_cell_formula_units_Z   2
loop_
 _symmetry_equiv_pos_site_id
 _symmetry_equiv_pos_as_xyz
  1  'x, y, z'
loop_
 _atom_site_type_symbol
 _atom_site_label
 _atom_site_symmetry_multiplicity
 _atom_site_fract_x
 _atom_site_fract_y
 _atom_site_fract_z
 _atom_site_occupancy
  H  H0  1  0.26923577  0.73076423  0.75000000  1
  H  H1  1  0.73076423  0.26923577  0.25000000  1
  He  He2  1  0.58072657  0.41927343  0.75000000  1
  He  He3  1  0.41927343  0.58072657  0.25000000  1
  He  He4  1  0.86359479  0.13640521  0.94109295  1
  He  He5  1  0.13640521  0.86359479  0.44109295  1
  He  He6  1  0.86359479  0.13640521  0.55890705  1
  He  He7  1  0.13640521  0.86359479  0.05890705  1
