# generated using pymatgen
data_H6He3Li2Be
_symmetry_space_group_name_H-M   'P 1'
_cell_length_a   8.13755375
_cell_length_b   7.09899166
_cell_length_c   14.05172006
_cell_angle_alpha   88.85268915
_cell_angle_beta   90.00000000
_cell_angle_gamma   90.00000000
_symmetry_Int_Tables_number   1
_chemical_formula_structural   H6He3Li2Be
_chemical_formula_sum   'H12 He6 Li4 Be2'
_cell_volume   811.58301421
_cell_formula_units_Z   2
loop_
 _symmetry_equiv_pos_site_id
 _symmetry_equiv_pos_as_xyz
  1  'x, y, z'
loop_
 _atom_site_type_symbol
 _atom_site_label
 _atom_site_symmetry_multiplicity
 _atom_site_fract_x
 _atom_site_fract_y
 _atom_site_fract_z
 _atom_site_occupancy
  H  H0  1  0.72961277  0.83926453  0.07052400  1
  H  H1  1  0.22961277  0.16073547  0.42947600  1
  H  H2  1  0.27038723  0.16073547  0.92947600  1
  H  H3  1  0.77038723  0.83926453  0.57052400  1
  H  H4  1  0.54005741  0.83164941  0.33493460  1
  H  H5  1  0.04005741  0.16835059  0.16506540  1
  H  H6  1  0.45994259  0.16835059  0.66506540  1
  H  H7  1  0.95994259  0.83164941  0.83493460  1
  H  H8  1  0.17263353  0.70504923  0.06270736  1
  H  H9  1  0.67263353  0.29495077  0.43729264  1
  H  H10  1  0.82736647  0.29495077  0.93729264  1
  H  H11  1  0.32736647  0.70504923  0.56270736  1
  He  He12  1  0.27800714  0.48953597  0.25664822  1
  He  He13  1  0.77800714  0.51046403  0.24335178  1
  He  He14  1  0.72199286  0.51046403  0.74335178  1
  He  He15  1  0.22199286  0.48953597  0.75664822  1
  He  He16  1  0.00000000  0.50000000  0.50000000  1
  He  He17  1  0.50000000  0.50000000  0.00000000  1
  Li  Li18  1  0.02774889  0.69590503  0.33101100  1
  Li  Li19  1  0.52774889  0.30409497  0.16898900  1
  Li  Li20  1  0.97225111  0.30409497  0.66898900  1
  Li  Li21  1  0.47225111  0.69590503  0.83101100  1
  Be  Be22  1  0.00000000  0.00000000  0.00000000  1
  Be  Be23  1  0.50000000  -0.00000000  0.50000000  1
