# generated using pymatgen
data_HHeLi
_symmetry_space_group_name_H-M   'P 1'
_cell_length_a   6.92429884
_cell_length_b   6.92429884
_cell_length_c   3.72430508
_cell_angle_alpha   90.00000000
_cell_angle_beta   90.00000000
_cell_angle_gamma   120.00176138
_symmetry_Int_Tables_number   1
_chemical_formula_structural   HHeLi
_chemical_formula_sum   'H3 He3 Li3'
_cell_volume   154.63926556
_cell_formula_units_Z   3
loop_
 _symmetry_equiv_pos_site_id
 _symmetry_equiv_pos_as_xyz
  1  'x, y, z'
loop_
 _atom_site_type_symbol
 _atom_site_label
 _atom_site_symmetry_multiplicity
 _atom_site_fract_x
 _atom_site_fract_y
 _atom_site_fract_z
 _atom_site_occupancy
  H  H0  1  0.23740626  0.00000266  0.00000000  1
  H  H1  1  0.00000266  0.23740626  0.00000000  1
  H  H2  1  0.76259536  0.76259536  0.00000000  1
  He  He3  1  0.58066295  0.99999331  0.50000000  1
  He  He4  1  0.99999331  0.58066295  0.50000000  1
  He  He5  1  0.41933386  0.41933386  0.50000000  1
  Li  Li6  1  0.33331929  0.66667866  0.00000000  1
  Li  Li7  1  0.66667866  0.33331929  0.00000000  1
  Li  Li8  1  0.00000765  0.00000765  0.50000000  1
