# generated using pymatgen
data_H14HeLi
_symmetry_space_group_name_H-M   'P 1'
_cell_length_a   9.68139345
_cell_length_b   11.98308044
_cell_length_c   15.18160282
_cell_angle_alpha   90.00000000
_cell_angle_beta   90.00000000
_cell_angle_gamma   90.00000000
_symmetry_Int_Tables_number   1
_chemical_formula_structural   H14HeLi
_chemical_formula_sum   'H56 He4 Li4'
_cell_volume   1761.26201963
_cell_formula_units_Z   4
loop_
 _symmetry_equiv_pos_site_id
 _symmetry_equiv_pos_as_xyz
  1  'x, y, z'
loop_
 _atom_site_type_symbol
 _atom_site_label
 _atom_site_symmetry_multiplicity
 _atom_site_fract_x
 _atom_site_fract_y
 _atom_site_fract_z
 _atom_site_occupancy
  H  H0  1  0.75000000  0.17045901  0.04951167  1
  H  H1  1  0.25000000  0.67045901  0.45048833  1
  H  H2  1  0.25000000  0.82954099  0.95048833  1
  H  H3  1  0.75000000  0.32954099  0.54951167  1
  H  H4  1  0.75000000  0.75480093  0.46021224  1
  H  H5  1  0.25000000  0.25480093  0.03978776  1
  H  H6  1  0.25000000  0.24519907  0.53978776  1
  H  H7  1  0.75000000  0.74519907  0.96021224  1
  H  H8  1  0.75000000  0.64429278  0.08598877  1
  H  H9  1  0.25000000  0.14429278  0.41401123  1
  H  H10  1  0.25000000  0.35570722  0.91401123  1
  H  H11  1  0.75000000  0.85570722  0.58598877  1
  H  H12  1  0.75000000  0.17499105  0.35266731  1
  H  H13  1  0.25000000  0.67499105  0.14733269  1
  H  H14  1  0.25000000  0.82500895  0.64733269  1
  H  H15  1  0.75000000  0.32500895  0.85266731  1
  H  H16  1  0.93112782  0.64487648  0.47253302  1
  H  H17  1  0.06887218  0.14487648  0.02746698  1
  H  H18  1  0.43112782  0.35512352  0.52746698  1
  H  H19  1  0.56887218  0.85512352  0.97253302  1
  H  H20  1  0.06887218  0.35512352  0.52746698  1
  H  H21  1  0.93112782  0.85512352  0.97253302  1
  H  H22  1  0.56887218  0.64487648  0.47253302  1
  H  H23  1  0.43112782  0.14487648  0.02746698  1
  H  H24  1  0.92829905  0.28454048  0.06259955  1
  H  H25  1  0.07170095  0.78454048  0.43740045  1
  H  H26  1  0.42829905  0.71545952  0.93740045  1
  H  H27  1  0.57170095  0.21545952  0.56259955  1
  H  H28  1  0.07170095  0.71545952  0.93740045  1
  H  H29  1  0.92829905  0.21545952  0.56259955  1
  H  H30  1  0.57170095  0.28454048  0.06259955  1
  H  H31  1  0.42829905  0.78454048  0.43740045  1
  H  H32  1  0.92449178  0.11199020  0.43089175  1
  H  H33  1  0.07550822  0.61199020  0.06910825  1
  H  H34  1  0.42449178  0.88800980  0.56910825  1
  H  H35  1  0.57550822  0.38800980  0.93089175  1
  H  H36  1  0.07550822  0.88800980  0.56910825  1
  H  H37  1  0.92449178  0.38800980  0.93089175  1
  H  H38  1  0.57550822  0.11199020  0.43089175  1
  H  H39  1  0.42449178  0.61199020  0.06910825  1
  H  H40  1  0.93346512  0.70600551  0.15698293  1
  H  H41  1  0.06653488  0.20600551  0.34301707  1
  H  H42  1  0.43346512  0.29399449  0.84301707  1
  H  H43  1  0.56653488  0.79399449  0.65698293  1
  H  H44  1  0.06653488  0.29399449  0.84301707  1
  H  H45  1  0.93346512  0.79399449  0.65698293  1
  H  H46  1  0.56653488  0.70600551  0.15698293  1
  H  H47  1  0.43346512  0.20600551  0.34301707  1
  H  H48  1  0.97774773  0.87892982  0.11380604  1
  H  H49  1  0.02225227  0.37892982  0.38619396  1
  H  H50  1  0.47774773  0.12107018  0.88619396  1
  H  H51  1  0.52225227  0.62107018  0.61380604  1
  H  H52  1  0.02225227  0.12107018  0.88619396  1
  H  H53  1  0.97774773  0.62107018  0.61380604  1
  H  H54  1  0.52225227  0.87892982  0.11380604  1
  H  H55  1  0.47774773  0.37892982  0.38619396  1
  He  He56  1  0.75000000  0.00900487  0.18902369  1
  He  He57  1  0.25000000  0.50900487  0.31097631  1
  He  He58  1  0.25000000  0.99099513  0.81097631  1
  He  He59  1  0.75000000  0.49099513  0.68902369  1
  Li  Li60  1  0.75000000  0.36040710  0.39730165  1
  Li  Li61  1  0.25000000  0.86040710  0.10269835  1
  Li  Li62  1  0.25000000  0.63959290  0.60269835  1
  Li  Li63  1  0.75000000  0.13959290  0.89730165  1
