# generated using pymatgen
data_HHe3
_symmetry_space_group_name_H-M   'P 1'
_cell_length_a   10.77160504
_cell_length_b   10.77160504
_cell_length_c   11.01918165
_cell_angle_alpha   90.00000000
_cell_angle_beta   90.00000000
_cell_angle_gamma   120.01028483
_symmetry_Int_Tables_number   1
_chemical_formula_structural   HHe3
_chemical_formula_sum   'H6 He18'
_cell_volume   1107.12280822
_cell_formula_units_Z   6
loop_
 _symmetry_equiv_pos_site_id
 _symmetry_equiv_pos_as_xyz
  1  'x, y, z'
loop_
 _atom_site_type_symbol
 _atom_site_label
 _atom_site_symmetry_multiplicity
 _atom_site_fract_x
 _atom_site_fract_y
 _atom_site_fract_z
 _atom_site_occupancy
  H  H0  1  0.33188916  0.33188916  0.75061939  1
  H  H1  1  0.66812835  0.00000638  0.75062524  1
  H  H2  1  0.00000638  0.66812835  0.75062524  1
  H  H3  1  0.66811084  0.66811084  0.25061939  1
  H  H4  1  0.33187165  0.99999362  0.25062524  1
  H  H5  1  0.99999362  0.33187165  0.25062524  1
  He  He6  1  0.31075142  0.31075142  0.08181029  1
  He  He7  1  0.68925570  0.99999438  0.08180832  1
  He  He8  1  0.99999438  0.68925570  0.08180832  1
  He  He9  1  0.68924858  0.68924858  0.58181029  1
  He  He10  1  0.31074430  0.00000562  0.58180832  1
  He  He11  1  0.00000562  0.31074430  0.58180832  1
  He  He12  1  0.35377837  0.35377837  0.41920483  1
  He  He13  1  0.64622333  0.99999527  0.41920834  1
  He  He14  1  0.99999527  0.64622333  0.41920834  1
  He  He15  1  0.64622163  0.64622163  0.91920483  1
  He  He16  1  0.35377667  0.00000473  0.91920834  1
  He  He17  1  0.00000473  0.35377667  0.91920834  1
  He  He18  1  0.33333468  0.66666776  0.23032408  1
  He  He19  1  0.66666532  0.33333224  0.73032408  1
  He  He20  1  0.33333224  0.66666532  0.73032408  1
  He  He21  1  0.66666776  0.33333468  0.23032408  1
  He  He22  1  0.99999827  0.99999827  0.28443353  1
  He  He23  1  0.00000173  0.00000173  0.78443353  1
