# generated using pymatgen
data_HHe2(LiBe4)2
_symmetry_space_group_name_H-M   'P 1'
_cell_length_a   8.20453089
_cell_length_b   8.20453089
_cell_length_c   13.98606000
_cell_angle_alpha   83.92016661
_cell_angle_beta   83.92016661
_cell_angle_gamma   113.19299190
_symmetry_Int_Tables_number   1
_chemical_formula_structural   HHe2(LiBe4)2
_chemical_formula_sum   'H4 He8 Li8 Be32'
_cell_volume   849.21089993
_cell_formula_units_Z   4
loop_
 _symmetry_equiv_pos_site_id
 _symmetry_equiv_pos_as_xyz
  1  'x, y, z'
loop_
 _atom_site_type_symbol
 _atom_site_label
 _atom_site_symmetry_multiplicity
 _atom_site_fract_x
 _atom_site_fract_y
 _atom_site_fract_z
 _atom_site_occupancy
  H  H0  1  0.20546681  0.21552878  0.06586381  1
  H  H1  1  0.28447122  0.29453319  0.43413619  1
  H  H2  1  0.79453319  0.78447122  0.93413619  1
  H  H3  1  0.71552878  0.70546681  0.56586381  1
  He  He4  1  0.19985065  0.57784689  0.61294480  1
  He  He5  1  0.92215311  0.30014935  0.88705520  1
  He  He6  1  0.80014935  0.42215311  0.38705520  1
  He  He7  1  0.07784689  0.69985065  0.11294480  1
  He  He8  1  0.40524367  0.63698683  0.17308924  1
  He  He9  1  0.86301317  0.09475633  0.32691076  1
  He  He10  1  0.59475633  0.36301317  0.82691076  1
  He  He11  1  0.13698683  0.90524367  0.67308924  1
  Li  Li12  1  0.71907610  0.06778915  0.11032151  1
  Li  Li13  1  0.43221085  0.78092390  0.38967849  1
  Li  Li14  1  0.28092390  0.93221085  0.88967849  1
  Li  Li15  1  0.56778915  0.21907610  0.61032151  1
  Li  Li16  1  0.90228498  0.14656921  0.67407665  1
  Li  Li17  1  0.35343079  0.59771502  0.82592335  1
  Li  Li18  1  0.09771502  0.85343079  0.32592335  1
  Li  Li19  1  0.64656921  0.40228498  0.17407665  1
  Be  Be20  1  0.87228847  0.13014836  0.99908840  1
  Be  Be21  1  0.36985164  0.62771153  0.50091160  1
  Be  Be22  1  0.12771153  0.86985164  0.00091160  1
  Be  Be23  1  0.63014836  0.37228847  0.49908840  1
  Be  Be24  1  0.46024445  0.44436075  0.14620032  1
  Be  Be25  1  0.05563925  0.03975555  0.35379968  1
  Be  Be26  1  0.53975555  0.55563925  0.85379968  1
  Be  Be27  1  0.94436075  0.96024445  0.64620032  1
  Be  Be28  1  0.58621892  0.84297814  0.10124605  1
  Be  Be29  1  0.65702186  0.91378108  0.39875395  1
  Be  Be30  1  0.41378108  0.15702186  0.89875395  1
  Be  Be31  1  0.34297814  0.08621892  0.60124605  1
  Be  Be32  1  0.08097932  0.33671414  0.60498068  1
  Be  Be33  1  0.16328586  0.41902068  0.89501932  1
  Be  Be34  1  0.91902068  0.66328586  0.39501932  1
  Be  Be35  1  0.83671414  0.58097932  0.10498068  1
  Be  Be36  1  0.58758709  0.19432698  0.12523885  1
  Be  Be37  1  0.30567302  0.91241291  0.37476115  1
  Be  Be38  1  0.41241291  0.80567302  0.87476115  1
  Be  Be39  1  0.69432698  0.08758709  0.62523885  1
  Be  Be40  1  0.05636306  0.69603465  0.62347548  1
  Be  Be41  1  0.80396535  0.44363694  0.87652452  1
  Be  Be42  1  0.94363694  0.30396535  0.37652452  1
  Be  Be43  1  0.19603465  0.55636306  0.12347548  1
  Be  Be44  1  0.87303378  0.10625392  0.19373062  1
  Be  Be45  1  0.39374608  0.62696622  0.30626938  1
  Be  Be46  1  0.12696622  0.89374608  0.80626938  1
  Be  Be47  1  0.60625392  0.37303378  0.69373062  1
  Be  Be48  1  0.36666001  0.63298627  0.69863385  1
  Be  Be49  1  0.86701373  0.13333999  0.80136615  1
  Be  Be50  1  0.63333999  0.36701373  0.30136615  1
  Be  Be51  1  0.13298627  0.86666001  0.19863385  1
