# generated using pymatgen
data_HHe3
_symmetry_space_group_name_H-M   'P 1'
_cell_length_a   8.77001779
_cell_length_b   8.77001779
_cell_length_c   8.99278166
_cell_angle_alpha   90.00000000
_cell_angle_beta   90.00000000
_cell_angle_gamma   120.00130051
_symmetry_Int_Tables_number   1
_chemical_formula_structural   HHe3
_chemical_formula_sum   'H6 He18'
_cell_volume   598.99050520
_cell_formula_units_Z   6
loop_
 _symmetry_equiv_pos_site_id
 _symmetry_equiv_pos_as_xyz
  1  'x, y, z'
loop_
 _atom_site_type_symbol
 _atom_site_label
 _atom_site_symmetry_multiplicity
 _atom_site_fract_x
 _atom_site_fract_y
 _atom_site_fract_z
 _atom_site_occupancy
  H  H0  1  0.33181517  0.00000481  0.24986216  1
  H  H1  1  0.00000481  0.33181517  0.24986216  1
  H  H2  1  0.66818047  0.66818047  0.24986112  1
  H  H3  1  0.66818483  0.99999519  0.74986216  1
  H  H4  1  0.99999519  0.66818483  0.74986216  1
  H  H5  1  0.33181953  0.33181953  0.74986112  1
  He  He6  1  0.31028274  0.00000206  0.58048953  1
  He  He7  1  0.00000206  0.31028274  0.58048953  1
  He  He8  1  0.68971719  0.68971719  0.58049089  1
  He  He9  1  0.68971726  0.99999794  0.08048953  1
  He  He10  1  0.99999794  0.68971726  0.08048953  1
  He  He11  1  0.31028281  0.31028281  0.08049089  1
  He  He12  1  0.35544593  0.00000406  0.91894538  1
  He  He13  1  0.00000406  0.35544593  0.91894538  1
  He  He14  1  0.64454910  0.64454910  0.91894357  1
  He  He15  1  0.64455407  0.99999594  0.41894538  1
  He  He16  1  0.99999594  0.64455407  0.41894538  1
  He  He17  1  0.35545090  0.35545090  0.41894357  1
  He  He18  1  0.33330999  0.66669129  0.23458766  1
  He  He19  1  0.66669001  0.33330871  0.73458766  1
  He  He20  1  0.33330871  0.66669001  0.73458766  1
  He  He21  1  0.66669129  0.33330999  0.23458766  1
  He  He22  1  0.00000025  0.00000025  0.28383496  1
  He  He23  1  -0.00000025  -0.00000025  0.78383496  1
