# generated using pymatgen
data_HHe4Li
_symmetry_space_group_name_H-M   'P 1'
_cell_length_a   7.20667788
_cell_length_b   4.80610986
_cell_length_c   4.93404456
_cell_angle_alpha   82.83076842
_cell_angle_beta   90.00000000
_cell_angle_gamma   90.00000000
_symmetry_Int_Tables_number   1
_chemical_formula_structural   HHe4Li
_chemical_formula_sum   'H2 He8 Li2'
_cell_volume   169.55990184
_cell_formula_units_Z   2
loop_
 _symmetry_equiv_pos_site_id
 _symmetry_equiv_pos_as_xyz
  1  'x, y, z'
loop_
 _atom_site_type_symbol
 _atom_site_label
 _atom_site_symmetry_multiplicity
 _atom_site_fract_x
 _atom_site_fract_y
 _atom_site_fract_z
 _atom_site_occupancy
  H  H0  1  0.75000000  0.84708693  0.14398098  1
  H  H1  1  0.25000000  0.15291307  0.85601902  1
  He  He2  1  0.25000000  0.75609920  0.67128927  1
  He  He3  1  0.75000000  0.24390080  0.32871073  1
  He  He4  1  0.75000000  0.63382868  0.61112276  1
  He  He5  1  0.25000000  0.36617132  0.38887724  1
  He  He6  1  0.41875551  0.82352475  0.20446713  1
  He  He7  1  0.91875551  0.17647525  0.79553287  1
  He  He8  1  0.58124449  0.17647525  0.79553287  1
  He  He9  1  0.08124449  0.82352475  0.20446713  1
  Li  Li10  1  0.25000000  0.68916472  0.36962448  1
  Li  Li11  1  0.75000000  0.31083528  0.63037552  1
