# generated using pymatgen
data_H4HeLiBe
_symmetry_space_group_name_H-M   'P 1'
_cell_length_a   5.49565857
_cell_length_b   8.82800280
_cell_length_c   8.97249943
_cell_angle_alpha   89.37177459
_cell_angle_beta   90.00000000
_cell_angle_gamma   90.00000000
_symmetry_Int_Tables_number   1
_chemical_formula_structural   H4HeLiBe
_chemical_formula_sum   'H16 He4 Li4 Be4'
_cell_volume   435.28082752
_cell_formula_units_Z   4
loop_
 _symmetry_equiv_pos_site_id
 _symmetry_equiv_pos_as_xyz
  1  'x, y, z'
loop_
 _atom_site_type_symbol
 _atom_site_label
 _atom_site_symmetry_multiplicity
 _atom_site_fract_x
 _atom_site_fract_y
 _atom_site_fract_z
 _atom_site_occupancy
  H  H0  1  0.51826700  0.97063708  0.33465824  1
  H  H1  1  0.01826700  0.02936292  0.66534176  1
  H  H2  1  0.00220553  0.52860665  0.99188289  1
  H  H3  1  0.50220553  0.47139335  0.00811711  1
  H  H4  1  0.77729727  0.77673685  0.96368680  1
  H  H5  1  0.27729727  0.22326315  0.03631320  1
  H  H6  1  0.16603520  0.21159011  0.45927795  1
  H  H7  1  0.66603520  0.78840989  0.54072205  1
  H  H8  1  0.57974206  0.69224605  0.28230910  1
  H  H9  1  0.07974206  0.30775395  0.71769090  1
  H  H10  1  0.23042790  0.77743774  0.00925006  1
  H  H11  1  0.73042790  0.22256226  0.99074994  1
  H  H12  1  0.23054562  0.77269980  0.44681759  1
  H  H13  1  0.73054562  0.22730020  0.55318241  1
  H  H14  1  0.56847519  0.31038225  0.24162784  1
  H  H15  1  0.06847519  0.68961775  0.75837216  1
  He  He16  1  0.99858446  0.19197072  0.59800181  1
  He  He17  1  0.49858446  0.80802928  0.40199819  1
  He  He18  1  0.01953054  0.69169735  0.92851819  1
  He  He19  1  0.51953054  0.30830265  0.07148181  1
  Li  Li20  1  0.00699059  0.99775792  0.18648719  1
  Li  Li21  1  0.50699059  0.00224208  0.81351281  1
  Li  Li22  1  0.99459477  0.49496904  0.31228963  1
  Li  Li23  1  0.49459477  0.50503096  0.68771037  1
  Be  Be24  1  0.99847270  0.82628562  0.59591419  1
  Be  Be25  1  0.49847270  0.17371438  0.40408581  1
  Be  Be26  1  0.02121720  0.32488770  0.92541196  1
  Be  Be27  1  0.52121720  0.67511230  0.07458804  1
