# generated using pymatgen
data_HHeLi4Be
_symmetry_space_group_name_H-M   'P 1'
_cell_length_a   9.80555879
_cell_length_b   5.09651304
_cell_length_c   8.30985875
_cell_angle_alpha   87.83077482
_cell_angle_beta   90.00000000
_cell_angle_gamma   90.00000000
_symmetry_Int_Tables_number   1
_chemical_formula_structural   HHeLi4Be
_chemical_formula_sum   'H4 He4 Li16 Be4'
_cell_volume   414.98060410
_cell_formula_units_Z   4
loop_
 _symmetry_equiv_pos_site_id
 _symmetry_equiv_pos_as_xyz
  1  'x, y, z'
loop_
 _atom_site_type_symbol
 _atom_site_label
 _atom_site_symmetry_multiplicity
 _atom_site_fract_x
 _atom_site_fract_y
 _atom_site_fract_z
 _atom_site_occupancy
  H  H0  1  0.00777965  0.86320752  0.09050432  1
  H  H1  1  0.50777965  0.13679248  0.90949568  1
  H  H2  1  0.90239447  0.27235768  0.41697447  1
  H  H3  1  0.40239447  0.72764232  0.58302553  1
  He  He4  1  0.62899490  0.71078828  0.24000777  1
  He  He5  1  0.12899490  0.28921172  0.75999223  1
  He  He6  1  0.77081603  0.72114279  0.74071350  1
  He  He7  1  0.27081603  0.27885721  0.25928650  1
  Li  Li8  1  0.89873557  0.07651247  0.93115578  1
  Li  Li9  1  0.39873557  0.92348753  0.06884422  1
  Li  Li10  1  0.88123591  0.07801663  0.21873046  1
  Li  Li11  1  0.38123591  0.92198337  0.78126954  1
  Li  Li12  1  0.84398558  0.52043172  0.05496530  1
  Li  Li13  1  0.34398558  0.47956828  0.94503470  1
  Li  Li14  1  0.66172054  0.16522760  0.06256719  1
  Li  Li15  1  0.16172054  0.83477240  0.93743281  1
  Li  Li16  1  0.95938114  0.60852168  0.52084769  1
  Li  Li17  1  0.45938114  0.39147832  0.47915231  1
  Li  Li18  1  0.71241886  0.34057668  0.45786374  1
  Li  Li19  1  0.21241886  0.65942332  0.54213626  1
  Li  Li20  1  0.60695868  0.28712886  0.73023006  1
  Li  Li21  1  0.10695868  0.71287114  0.26976994  1
  Li  Li22  1  0.56725697  0.93600109  0.52226631  1
  Li  Li23  1  0.06725697  0.06399891  0.47773369  1
  Be  Be24  1  0.81578263  0.22708759  0.06009901  1
  Be  Be25  1  0.31578263  0.77291241  0.93990099  1
  Be  Be26  1  0.58407906  0.23579686  0.54711926  1
  Be  Be27  1  0.08407906  0.76420314  0.45288074  1
