# generated using pymatgen
data_H2He(Li2Be)4
_symmetry_space_group_name_H-M   'P 1'
_cell_length_a   7.26728105
_cell_length_b   5.89327104
_cell_length_c   8.42858004
_cell_angle_alpha   70.40978153
_cell_angle_beta   90.00000000
_cell_angle_gamma   90.00000000
_symmetry_Int_Tables_number   1
_chemical_formula_structural   H2He(Li2Be)4
_chemical_formula_sum   'H4 He2 Li16 Be8'
_cell_volume   340.08429022
_cell_formula_units_Z   2
loop_
 _symmetry_equiv_pos_site_id
 _symmetry_equiv_pos_as_xyz
  1  'x, y, z'
loop_
 _atom_site_type_symbol
 _atom_site_label
 _atom_site_symmetry_multiplicity
 _atom_site_fract_x
 _atom_site_fract_y
 _atom_site_fract_z
 _atom_site_occupancy
  H  H0  1  0.74026710  0.75927576  0.92190298  1
  H  H1  1  0.24026710  0.74072424  0.57809702  1
  H  H2  1  0.25973290  0.24072424  0.07809702  1
  H  H3  1  0.75973290  0.25927576  0.42190298  1
  He  He4  1  0.00000000  0.00000000  -0.00000000  1
  He  He5  1  0.50000000  0.50000000  0.50000000  1
  Li  Li6  1  0.92627996  0.23550876  0.65229822  1
  Li  Li7  1  0.42627996  0.26449124  0.84770178  1
  Li  Li8  1  0.07372004  0.76449124  0.34770178  1
  Li  Li9  1  0.57372004  0.73550876  0.15229822  1
  Li  Li10  1  0.07104456  0.39836774  0.70370083  1
  Li  Li11  1  0.57104456  0.10163226  0.79629917  1
  Li  Li12  1  0.92895544  0.60163226  0.29629917  1
  Li  Li13  1  0.42895544  0.89836774  0.20370083  1
  Li  Li14  1  0.22292733  0.81294360  0.81441890  1
  Li  Li15  1  0.72292733  0.68705640  0.68558110  1
  Li  Li16  1  0.77707267  0.18705640  0.18558110  1
  Li  Li17  1  0.27707267  0.31294360  0.31441890  1
  Li  Li18  1  0.22401221  0.62734404  0.99694678  1
  Li  Li19  1  0.72401221  0.87265596  0.50305322  1
  Li  Li20  1  0.77598779  0.37265596  0.00305322  1
  Li  Li21  1  0.27598779  0.12734404  0.49694678  1
  Be  Be22  1  0.99908614  0.24927919  0.74736215  1
  Be  Be23  1  0.49908614  0.25072081  0.75263785  1
  Be  Be24  1  0.00091386  0.75072081  0.25263785  1
  Be  Be25  1  0.50091386  0.74927919  0.24736215  1
  Be  Be26  1  0.78952102  0.19849308  0.06646105  1
  Be  Be27  1  0.28952102  0.30150692  0.43353895  1
  Be  Be28  1  0.21047898  0.80150692  0.93353895  1
  Be  Be29  1  0.71047898  0.69849308  0.56646105  1
