# generated using pymatgen
data_H2He9Li2Be
_symmetry_space_group_name_H-M   'P 1'
_cell_length_a   6.27900645
_cell_length_b   12.83968747
_cell_length_c   13.02150958
_cell_angle_alpha   90.00000000
_cell_angle_beta   90.00000000
_cell_angle_gamma   90.00000000
_symmetry_Int_Tables_number   1
_chemical_formula_structural   H2He9Li2Be
_chemical_formula_sum   'H8 He36 Li8 Be4'
_cell_volume   1049.80035875
_cell_formula_units_Z   4
loop_
 _symmetry_equiv_pos_site_id
 _symmetry_equiv_pos_as_xyz
  1  'x, y, z'
loop_
 _atom_site_type_symbol
 _atom_site_label
 _atom_site_symmetry_multiplicity
 _atom_site_fract_x
 _atom_site_fract_y
 _atom_site_fract_z
 _atom_site_occupancy
  H  H0  1  0.51595606  0.25000000  0.92582802  1
  H  H1  1  0.51595606  0.25000000  0.57417198  1
  H  H2  1  0.48404394  0.75000000  0.42582802  1
  H  H3  1  0.48404394  0.75000000  0.07417198  1
  H  H4  1  0.49281906  0.42672570  0.25000000  1
  H  H5  1  0.49281906  0.07327430  0.25000000  1
  H  H6  1  0.50718094  0.57327430  0.75000000  1
  H  H7  1  0.50718094  0.92672570  0.75000000  1
  He  He8  1  0.25141093  0.13205660  0.75000000  1
  He  He9  1  0.25141093  0.36794340  0.75000000  1
  He  He10  1  0.74858907  0.86794340  0.25000000  1
  He  He11  1  0.74858907  0.63205660  0.25000000  1
  He  He12  1  0.90648041  0.41826472  0.84610647  1
  He  He13  1  0.90648041  0.08173528  0.65389353  1
  He  He14  1  0.09351959  0.58173528  0.34610647  1
  He  He15  1  0.09351959  0.91826472  0.15389353  1
  He  He16  1  0.09351959  0.58173528  0.15389353  1
  He  He17  1  0.09351959  0.91826472  0.34610647  1
  He  He18  1  0.90648041  0.41826472  0.65389353  1
  He  He19  1  0.90648041  0.08173528  0.84610647  1
  He  He20  1  0.27091933  0.45659277  0.98903733  1
  He  He21  1  0.27091933  0.04340723  0.51096267  1
  He  He22  1  0.72908067  0.54340723  0.48903733  1
  He  He23  1  0.72908067  0.95659277  0.01096267  1
  He  He24  1  0.72908067  0.54340723  0.01096267  1
  He  He25  1  0.72908067  0.95659277  0.48903733  1
  He  He26  1  0.27091933  0.45659277  0.51096267  1
  He  He27  1  0.27091933  0.04340723  0.98903733  1
  He  He28  1  0.91525721  0.25000000  0.75000000  1
  He  He29  1  0.08474279  0.75000000  0.25000000  1
  He  He30  1  0.91074650  0.25000000  0.25000000  1
  He  He31  1  0.08925350  0.75000000  0.75000000  1
  He  He32  1  0.75442726  0.75000000  0.63300440  1
  He  He33  1  0.75442726  0.75000000  0.86699560  1
  He  He34  1  0.24557274  0.25000000  0.13300440  1
  He  He35  1  0.24557274  0.25000000  0.36699560  1
  He  He36  1  0.89991109  0.34806154  0.41437038  1
  He  He37  1  0.89991109  0.15193846  0.08562962  1
  He  He38  1  0.10008891  0.65193846  0.91437038  1
  He  He39  1  0.10008891  0.84806154  0.58562962  1
  He  He40  1  0.10008891  0.65193846  0.58562962  1
  He  He41  1  0.10008891  0.84806154  0.91437038  1
  He  He42  1  0.89991109  0.34806154  0.08562962  1
  He  He43  1  0.89991109  0.15193846  0.41437038  1
  Li  Li44  1  0.01255899  0.36868195  0.75000000  1
  Li  Li45  1  0.01255899  0.13131805  0.75000000  1
  Li  Li46  1  0.98744101  0.63131805  0.25000000  1
  Li  Li47  1  0.98744101  0.86868195  0.25000000  1
  Li  Li48  1  0.00662905  0.25000000  0.36693741  1
  Li  Li49  1  0.00662905  0.25000000  0.13306259  1
  Li  Li50  1  0.99337095  0.75000000  0.86693741  1
  Li  Li51  1  0.99337095  0.75000000  0.63306259  1
  Be  Be52  1  0.00000000  0.00000000  0.00000000  1
  Be  Be53  1  0.00000000  0.50000000  0.50000000  1
  Be  Be54  1  0.00000000  0.00000000  0.50000000  1
  Be  Be55  1  0.00000000  0.50000000  0.00000000  1
