# generated using pymatgen
data_H4He
_symmetry_space_group_name_H-M   'P 1'
_cell_length_a   7.59918857
_cell_length_b   11.35124316
_cell_length_c   11.43181200
_cell_angle_alpha   76.69160396
_cell_angle_beta   90.00000000
_cell_angle_gamma   90.00000000
_symmetry_Int_Tables_number   1
_chemical_formula_structural   H4He
_chemical_formula_sum   'H16 He4'
_cell_volume   959.62895820
_cell_formula_units_Z   4
loop_
 _symmetry_equiv_pos_site_id
 _symmetry_equiv_pos_as_xyz
  1  'x, y, z'
loop_
 _atom_site_type_symbol
 _atom_site_label
 _atom_site_symmetry_multiplicity
 _atom_site_fract_x
 _atom_site_fract_y
 _atom_site_fract_z
 _atom_site_occupancy
  H  H0  1  0.57816806  0.92995479  0.19243572  1
  H  H1  1  0.07816806  0.07004521  0.30756428  1
  H  H2  1  0.42183194  0.07004521  0.80756428  1
  H  H3  1  0.92183194  0.92995479  0.69243572  1
  H  H4  1  0.88914646  0.68793044  0.42485898  1
  H  H5  1  0.38914646  0.31206956  0.07514102  1
  H  H6  1  0.11085354  0.31206956  0.57514102  1
  H  H7  1  0.61085354  0.68793044  0.92485898  1
  H  H8  1  0.41972365  0.57811292  0.30774356  1
  H  H9  1  0.91972365  0.42188708  0.19225644  1
  H  H10  1  0.58027635  0.42188708  0.69225644  1
  H  H11  1  0.08027635  0.57811292  0.80774356  1
  H  H12  1  0.42420419  0.80262676  0.54284452  1
  H  H13  1  0.92420419  0.19737324  0.95715548  1
  H  H14  1  0.57579581  0.19737324  0.45715548  1
  H  H15  1  0.07579581  0.80262676  0.04284452  1
  He  He16  1  0.57799829  0.74976954  0.36738697  1
  He  He17  1  0.07799829  0.25023046  0.13261303  1
  He  He18  1  0.42200171  0.25023046  0.63261303  1
  He  He19  1  0.92200171  0.74976954  0.86738697  1
