# generated using pymatgen
data_H2HeLi3
_symmetry_space_group_name_H-M   'P 1'
_cell_length_a   5.58026629
_cell_length_b   5.57641843
_cell_length_c   3.04821016
_cell_angle_alpha   90.00000000
_cell_angle_beta   90.00000000
_cell_angle_gamma   120.02282839
_symmetry_Int_Tables_number   1
_chemical_formula_structural   H2HeLi3
_chemical_formula_sum   'H2 He1 Li3'
_cell_volume   82.12698261
_cell_formula_units_Z   1
loop_
 _symmetry_equiv_pos_site_id
 _symmetry_equiv_pos_as_xyz
  1  'x, y, z'
loop_
 _atom_site_type_symbol
 _atom_site_label
 _atom_site_symmetry_multiplicity
 _atom_site_fract_x
 _atom_site_fract_y
 _atom_site_fract_z
 _atom_site_occupancy
  H  H0  1  0.66673712  0.33347424  -0.00000000  1
  H  H1  1  0.33326288  0.66652576  0.00000000  1
  He  He2  1  0.00000000  0.00000000  0.00000000  1
  Li  Li3  1  -0.00000000  0.50000000  0.50000000  1
  Li  Li4  1  0.50000000  0.50000000  0.50000000  1
  Li  Li5  1  0.50000000  -0.00000000  0.50000000  1
