# generated using pymatgen
data_HHe
_symmetry_space_group_name_H-M   'P 1'
_cell_length_a   3.28503451
_cell_length_b   5.80078053
_cell_length_c   6.26333176
_cell_angle_alpha   90.00000000
_cell_angle_beta   90.00000000
_cell_angle_gamma   90.00000000
_symmetry_Int_Tables_number   1
_chemical_formula_structural   HHe
_chemical_formula_sum   'H4 He4'
_cell_volume   119.35257327
_cell_formula_units_Z   4
loop_
 _symmetry_equiv_pos_site_id
 _symmetry_equiv_pos_as_xyz
  1  'x, y, z'
loop_
 _atom_site_type_symbol
 _atom_site_label
 _atom_site_symmetry_multiplicity
 _atom_site_fract_x
 _atom_site_fract_y
 _atom_site_fract_z
 _atom_site_occupancy
  H  H0  1  0.25000000  0.18368041  0.43347324  1
  H  H1  1  0.75000000  0.31631959  0.93347324  1
  H  H2  1  0.75000000  0.81631959  0.56652676  1
  H  H3  1  0.25000000  0.68368041  0.06652676  1
  He  He4  1  0.25000000  0.01396933  0.81246396  1
  He  He5  1  0.75000000  0.48603067  0.31246396  1
  He  He6  1  0.75000000  0.98603067  0.18753604  1
  He  He7  1  0.25000000  0.51396933  0.68753604  1
