# generated using pymatgen
data_H8He6Li
_symmetry_space_group_name_H-M   'P 1'
_cell_length_a   6.91134771
_cell_length_b   7.01918063
_cell_length_c   9.74528401
_cell_angle_alpha   90.00000000
_cell_angle_beta   90.00000000
_cell_angle_gamma   90.00000000
_symmetry_Int_Tables_number   1
_chemical_formula_structural   H8He6Li
_chemical_formula_sum   'H16 He12 Li2'
_cell_volume   472.76319842
_cell_formula_units_Z   2
loop_
 _symmetry_equiv_pos_site_id
 _symmetry_equiv_pos_as_xyz
  1  'x, y, z'
loop_
 _atom_site_type_symbol
 _atom_site_label
 _atom_site_symmetry_multiplicity
 _atom_site_fract_x
 _atom_site_fract_y
 _atom_site_fract_z
 _atom_site_occupancy
  H  H0  1  0.52562900  0.20883577  0.74094403  1
  H  H1  1  0.47437100  0.29116423  0.24094403  1
  H  H2  1  0.47437100  0.70883577  0.24094403  1
  H  H3  1  0.52562900  0.79116423  0.74094403  1
  H  H4  1  0.10759274  0.20333462  0.14422089  1
  H  H5  1  0.89240726  0.29666538  0.64422089  1
  H  H6  1  0.89240726  0.70333462  0.64422089  1
  H  H7  1  0.10759274  0.79666538  0.14422089  1
  H  H8  1  0.13890995  0.19679242  0.84309747  1
  H  H9  1  0.86109005  0.30320758  0.34309747  1
  H  H10  1  0.86109005  0.69679242  0.34309747  1
  H  H11  1  0.13890995  0.80320758  0.84309747  1
  H  H12  1  0.60687183  0.00000000  0.97253826  1
  H  H13  1  0.39312817  0.50000000  0.47253826  1
  H  H14  1  0.73228028  0.00000000  0.52048433  1
  H  H15  1  0.26771972  0.50000000  0.02048433  1
  He  He16  1  0.75461727  0.24744158  0.10966790  1
  He  He17  1  0.24538273  0.25255842  0.60966790  1
  He  He18  1  0.24538273  0.74744158  0.60966790  1
  He  He19  1  0.75461727  0.75255842  0.10966790  1
  He  He20  1  0.00239927  0.00000000  0.35849920  1
  He  He21  1  0.99760073  0.50000000  0.85849920  1
  He  He22  1  0.49366985  0.00000000  0.35952338  1
  He  He23  1  0.50633015  0.50000000  0.85952338  1
  He  He24  1  0.78218819  0.00000000  0.75282121  1
  He  He25  1  0.21781181  0.50000000  0.25282121  1
  He  He26  1  0.27079442  0.00000000  0.99908140  1
  He  He27  1  0.72920558  0.50000000  0.49908140  1
  Li  Li28  1  0.24990208  0.00000000  0.49009163  1
  Li  Li29  1  0.75009792  0.50000000  0.99009163  1
