# generated using pymatgen
data_HHeLi3
_symmetry_space_group_name_H-M   'P 1'
_cell_length_a   5.71141522
_cell_length_b   9.72246005
_cell_length_c   10.01210665
_cell_angle_alpha   69.17901410
_cell_angle_beta   90.00000000
_cell_angle_gamma   90.00000000
_symmetry_Int_Tables_number   1
_chemical_formula_structural   HHeLi3
_chemical_formula_sum   'H8 He8 Li24'
_cell_volume   519.65551826
_cell_formula_units_Z   8
loop_
 _symmetry_equiv_pos_site_id
 _symmetry_equiv_pos_as_xyz
  1  'x, y, z'
loop_
 _atom_site_type_symbol
 _atom_site_label
 _atom_site_symmetry_multiplicity
 _atom_site_fract_x
 _atom_site_fract_y
 _atom_site_fract_z
 _atom_site_occupancy
  H  H0  1  0.21525739  0.61237443  0.37440985  1
  H  H1  1  0.71525739  0.38762557  0.62559015  1
  H  H2  1  0.21667624  0.88703801  0.62600136  1
  H  H3  1  0.71667624  0.11296199  0.37399864  1
  H  H4  1  0.78376947  0.88713200  0.12567795  1
  H  H5  1  0.28376947  0.11286800  0.87432205  1
  H  H6  1  0.78325136  0.61268726  0.87510632  1
  H  H7  1  0.28325136  0.38731274  0.12489368  1
  He  He8  1  0.21322756  0.75015919  0.99986869  1
  He  He9  1  0.71322756  0.24984081  0.00013131  1
  He  He10  1  0.78748957  0.75015846  0.50032483  1
  He  He11  1  0.28748957  0.24984154  0.49967517  1
  He  He12  1  0.24970968  0.50022360  0.75007777  1
  He  He13  1  0.74970968  0.49977640  0.24992223  1
  He  He14  1  0.25056439  0.99964645  0.25020311  1
  He  He15  1  0.75056439  0.00035355  0.74979689  1
  Li  Li16  1  0.17379084  0.65379323  0.82992678  1
  Li  Li17  1  0.67379084  0.34620677  0.17007322  1
  Li  Li18  1  0.17406706  0.84573974  0.17067657  1
  Li  Li19  1  0.67406706  0.15426026  0.82932343  1
  Li  Li20  1  0.82652175  0.84651696  0.67045461  1
  Li  Li21  1  0.32652175  0.15348304  0.32954539  1
  Li  Li22  1  0.82550997  0.65309342  0.33021877  1
  Li  Li23  1  0.32550997  0.34690658  0.66978123  1
  Li  Li24  1  0.56710979  0.60341871  0.62166894  1
  Li  Li25  1  0.06710979  0.39658129  0.37833106  1
  Li  Li26  1  0.56763682  0.89703352  0.37887602  1
  Li  Li27  1  0.06763682  0.10296648  0.62112398  1
  Li  Li28  1  0.43380090  0.89727516  0.87918087  1
  Li  Li29  1  0.93380090  0.10272484  0.12081913  1
  Li  Li30  1  0.43405448  0.60289161  0.11965099  1
  Li  Li31  1  0.93405448  0.39710839  0.88034901  1
  Li  Li32  1  0.54452849  0.39862417  0.41543902  1
  Li  Li33  1  0.04452849  0.60137583  0.58456098  1
  Li  Li34  1  0.54495362  0.10132788  0.58420103  1
  Li  Li35  1  0.04495362  0.89867212  0.41579897  1
  Li  Li36  1  0.45627537  0.10058133  0.08444101  1
  Li  Li37  1  0.95627537  0.89941867  0.91555899  1
  Li  Li38  1  0.45590527  0.39874997  0.91521528  1
  Li  Li39  1  0.95590527  0.60125003  0.08478472  1
