# generated using pymatgen
data_H2He
_symmetry_space_group_name_H-M   'P 1'
_cell_length_a   7.23488264
_cell_length_b   7.23488264
_cell_length_c   7.25235087
_cell_angle_alpha   75.40342178
_cell_angle_beta   75.40342178
_cell_angle_gamma   119.66267291
_symmetry_Int_Tables_number   1
_chemical_formula_structural   H2He
_chemical_formula_sum   'H16 He8'
_cell_volume   285.39282785
_cell_formula_units_Z   8
loop_
 _symmetry_equiv_pos_site_id
 _symmetry_equiv_pos_as_xyz
  1  'x, y, z'
loop_
 _atom_site_type_symbol
 _atom_site_label
 _atom_site_symmetry_multiplicity
 _atom_site_fract_x
 _atom_site_fract_y
 _atom_site_fract_z
 _atom_site_occupancy
  H  H0  1  0.00000000  0.00000000  -0.00000000  1
  H  H1  1  0.50000000  0.50000000  0.50000000  1
  H  H2  1  0.13168682  0.36831318  0.25000000  1
  H  H3  1  0.86831318  0.63168682  0.75000000  1
  H  H4  1  0.55301304  0.79244977  0.05690743  1
  H  H5  1  0.70755023  0.94698696  0.44309257  1
  H  H6  1  0.44698696  0.20755023  0.94309257  1
  H  H7  1  0.29244977  0.05301304  0.55690743  1
  H  H8  1  0.91476305  0.12420001  0.67077847  1
  H  H9  1  0.37579999  0.58523695  0.82922153  1
  H  H10  1  0.08523695  0.87579999  0.32922153  1
  H  H11  1  0.62420001  0.41476305  0.17077847  1
  H  H12  1  0.25563255  0.67891582  0.52015927  1
  H  H13  1  0.82108418  0.24436745  0.97984073  1
  H  H14  1  0.74436745  0.32108418  0.47984073  1
  H  H15  1  0.17891582  0.75563255  0.02015927  1
  He  He16  1  0.82340229  0.03848203  0.92640355  1
  He  He17  1  0.46151797  0.67659771  0.57359645  1
  He  He18  1  0.17659771  0.96151797  0.07359645  1
  He  He19  1  0.53848203  0.32340229  0.42640355  1
  He  He20  1  0.87446601  0.19066172  0.46021995  1
  He  He21  1  0.30933828  0.62553399  0.03978005  1
  He  He22  1  0.12553399  0.80933828  0.53978005  1
  He  He23  1  0.69066172  0.37446601  0.96021995  1
