# generated using pymatgen
data_H2He5
_symmetry_space_group_name_H-M   'P 1'
_cell_length_a   8.81323292
_cell_length_b   8.81323292
_cell_length_c   14.05713132
_cell_angle_alpha   89.62389737
_cell_angle_beta   89.62389737
_cell_angle_gamma   151.33090006
_symmetry_Int_Tables_number   1
_chemical_formula_structural   H2He5
_chemical_formula_sum   'H4 He10'
_cell_volume   523.63639781
_cell_formula_units_Z   2
loop_
 _symmetry_equiv_pos_site_id
 _symmetry_equiv_pos_as_xyz
  1  'x, y, z'
loop_
 _atom_site_type_symbol
 _atom_site_label
 _atom_site_symmetry_multiplicity
 _atom_site_fract_x
 _atom_site_fract_y
 _atom_site_fract_z
 _atom_site_occupancy
  H  H0  1  0.99917901  0.00291856  0.85487407  1
  H  H1  1  0.00291856  0.99917901  0.35487407  1
  H  H2  1  0.63278425  0.40271568  0.69086020  1
  H  H3  1  0.40271568  0.63278425  0.19086020  1
  He  He4  1  0.03212058  0.00797007  0.64812857  1
  He  He5  1  0.00797007  0.03212058  0.14812857  1
  He  He6  1  0.59809019  0.39484501  0.89732130  1
  He  He7  1  0.39484501  0.59809019  0.39732130  1
  He  He8  1  0.31559370  0.70317175  0.76806379  1
  He  He9  1  0.70317175  0.31559370  0.26806379  1
  He  He10  1  0.77208494  0.23719814  0.62299567  1
  He  He11  1  0.23719814  0.77208494  0.12299567  1
  He  He12  1  0.82189762  0.13523049  0.91505640  1
  He  He13  1  0.13523049  0.82189762  0.41505640  1
