# generated using pymatgen
data_H2He
_symmetry_space_group_name_H-M   'P 1'
_cell_length_a   7.63221861
_cell_length_b   7.63221861
_cell_length_c   3.68196330
_cell_angle_alpha   90.00000000
_cell_angle_beta   90.00000000
_cell_angle_gamma   151.89934298
_symmetry_Int_Tables_number   1
_chemical_formula_structural   H2He
_chemical_formula_sum   'H4 He2'
_cell_volume   101.02346180
_cell_formula_units_Z   2
loop_
 _symmetry_equiv_pos_site_id
 _symmetry_equiv_pos_as_xyz
  1  'x, y, z'
loop_
 _atom_site_type_symbol
 _atom_site_label
 _atom_site_symmetry_multiplicity
 _atom_site_fract_x
 _atom_site_fract_y
 _atom_site_fract_z
 _atom_site_occupancy
  H  H0  1  0.25035732  0.74964268  0.25000000  1
  H  H1  1  0.74964268  0.25035732  0.75000000  1
  H  H2  1  0.55281228  0.44718772  0.25000000  1
  H  H3  1  0.44718772  0.55281228  0.75000000  1
  He  He4  1  0.89445294  0.10554706  0.25000000  1
  He  He5  1  0.10554706  0.89445294  0.75000000  1
