# generated using pymatgen
data_H2He
_symmetry_space_group_name_H-M   'P 1'
_cell_length_a   3.86373810
_cell_length_b   3.86373810
_cell_length_c   6.92850776
_cell_angle_alpha   90.00369463
_cell_angle_beta   89.99630537
_cell_angle_gamma   119.99970101
_symmetry_Int_Tables_number   1
_chemical_formula_structural   H2He
_chemical_formula_sum   'H2 He1'
_cell_volume   89.57503945
_cell_formula_units_Z   1
loop_
 _symmetry_equiv_pos_site_id
 _symmetry_equiv_pos_as_xyz
  1  'x, y, z'
loop_
 _atom_site_type_symbol
 _atom_site_label
 _atom_site_symmetry_multiplicity
 _atom_site_fract_x
 _atom_site_fract_y
 _atom_site_fract_z
 _atom_site_occupancy
  H  H0  1  0.33332009  0.66667991  0.24871051  1
  H  H1  1  0.66667991  0.33332009  0.75128949  1
  He  He2  1  -0.00000000  0.00000000  0.00000000  1
