# generated using pymatgen
data_HHe4Li2Be
_symmetry_space_group_name_H-M   'P 1'
_cell_length_a   7.17029008
_cell_length_b   7.45224468
_cell_length_c   16.73059684
_cell_angle_alpha   80.43331302
_cell_angle_beta   84.55607191
_cell_angle_gamma   83.04941569
_symmetry_Int_Tables_number   1
_chemical_formula_structural   HHe4Li2Be
_chemical_formula_sum   'H4 He16 Li8 Be4'
_cell_volume   872.52771931
_cell_formula_units_Z   4
loop_
 _symmetry_equiv_pos_site_id
 _symmetry_equiv_pos_as_xyz
  1  'x, y, z'
loop_
 _atom_site_type_symbol
 _atom_site_label
 _atom_site_symmetry_multiplicity
 _atom_site_fract_x
 _atom_site_fract_y
 _atom_site_fract_z
 _atom_site_occupancy
  H  H0  1  0.44320828  0.05038128  0.53298338  1
  H  H1  1  0.55679172  0.94961872  0.46701662  1
  H  H2  1  0.91522265  0.07516099  0.99911350  1
  H  H3  1  0.08477735  0.92483901  0.00088650  1
  He  He4  1  0.60379413  0.41632991  0.38791269  1
  He  He5  1  0.39620587  0.58367009  0.61208731  1
  He  He6  1  0.38846149  0.28301052  0.23502878  1
  He  He7  1  0.61153851  0.71698948  0.76497122  1
  He  He8  1  0.12517989  0.52602487  0.39066030  1
  He  He9  1  0.87482011  0.47397513  0.60933970  1
  He  He10  1  0.09974718  0.07062556  0.38628935  1
  He  He11  1  0.90025282  0.92937444  0.61371065  1
  He  He12  1  0.52478834  0.19245829  0.83112377  1
  He  He13  1  0.47521166  0.80754171  0.16887623  1
  He  He14  1  0.30801823  0.32723427  0.00599030  1
  He  He15  1  0.69198177  0.67276573  0.99400970  1
  He  He16  1  0.11891370  0.54245118  0.82975393  1
  He  He17  1  0.88108630  0.45754882  0.17024607  1
  He  He18  1  0.08791170  0.11086352  0.78807890  1
  He  He19  1  0.91208830  0.88913648  0.21192110  1
  Li  Li20  1  0.33397662  0.19186994  0.50923913  1
  Li  Li21  1  0.66602338  0.80813006  0.49076087  1
  Li  Li22  1  0.53345369  0.01503592  0.39332814  1
  Li  Li23  1  0.46654631  0.98496408  0.60667186  1
  Li  Li24  1  0.93541361  0.22646487  0.95379900  1
  Li  Li25  1  0.06458639  0.77353513  0.04620100  1
  Li  Li26  1  0.23279418  0.96274960  0.95672160  1
  Li  Li27  1  0.76720582  0.03725040  0.04327840  1
  Be  Be28  1  0.33782769  0.26843553  0.37555531  1
  Be  Be29  1  0.66217231  0.73156447  0.62444469  1
  Be  Be30  1  0.21518507  0.24225842  0.88726404  1
  Be  Be31  1  0.78481493  0.75774158  0.11273596  1
