# generated using pymatgen
data_HHeLi
_symmetry_space_group_name_H-M   'P 1'
_cell_length_a   4.46069076
_cell_length_b   4.46069076
_cell_length_c   7.96464724
_cell_angle_alpha   90.00000000
_cell_angle_beta   90.00000000
_cell_angle_gamma   119.99597642
_symmetry_Int_Tables_number   1
_chemical_formula_structural   HHeLi
_chemical_formula_sum   'H2 He2 Li2'
_cell_volume   137.25210578
_cell_formula_units_Z   2
loop_
 _symmetry_equiv_pos_site_id
 _symmetry_equiv_pos_as_xyz
  1  'x, y, z'
loop_
 _atom_site_type_symbol
 _atom_site_label
 _atom_site_symmetry_multiplicity
 _atom_site_fract_x
 _atom_site_fract_y
 _atom_site_fract_z
 _atom_site_occupancy
  H  H0  1  0.33331348  0.66668652  0.25000000  1
  H  H1  1  0.66668652  0.33331348  0.75000000  1
  He  He2  1  0.33331308  0.66668692  0.75000000  1
  He  He3  1  0.66668692  0.33331308  0.25000000  1
  Li  Li4  1  0.00000000  0.00000000  0.00000000  1
  Li  Li5  1  0.00000000  0.00000000  0.50000000  1
