# generated using pymatgen
data_HHe2Li4
_symmetry_space_group_name_H-M   'P 1'
_cell_length_a   8.17713237
_cell_length_b   8.17713237
_cell_length_c   8.17713237
_cell_angle_alpha   136.05423169
_cell_angle_beta   114.22420139
_cell_angle_gamma   82.51276761
_symmetry_Int_Tables_number   1
_chemical_formula_structural   HHe2Li4
_chemical_formula_sum   'H4 He8 Li16'
_cell_volume   334.04873059
_cell_formula_units_Z   4
loop_
 _symmetry_equiv_pos_site_id
 _symmetry_equiv_pos_as_xyz
  1  'x, y, z'
loop_
 _atom_site_type_symbol
 _atom_site_label
 _atom_site_symmetry_multiplicity
 _atom_site_fract_x
 _atom_site_fract_y
 _atom_site_fract_z
 _atom_site_occupancy
  H  H0  1  0.73457229  0.11876046  0.61581183  1
  H  H1  1  0.99705137  0.38123954  0.61581183  1
  H  H2  1  0.00294863  0.61876046  0.38418817  1
  H  H3  1  0.26542771  0.88123954  0.38418817  1
  He  He4  1  0.00000000  0.00000000  0.00000000  1
  He  He5  1  0.50000000  0.50000000  -0.00000000  1
  He  He6  1  0.21786823  0.25000000  0.96786823  1
  He  He7  1  0.78213177  0.75000000  0.03213177  1
  He  He8  1  0.37727021  0.87727021  -0.00000000  1
  He  He9  1  0.62272979  0.62272979  0.50000000  1
  He  He10  1  0.62272979  0.12272979  0.00000000  1
  He  He11  1  0.37727021  0.37727021  0.50000000  1
  Li  Li12  1  0.46375154  0.25000000  0.21375154  1
  Li  Li13  1  0.53624846  0.75000000  0.78624846  1
  Li  Li14  1  0.96988006  0.25000000  0.71988006  1
  Li  Li15  1  0.03011994  0.75000000  0.28011994  1
  Li  Li16  1  0.24575182  0.99228337  0.25346845  1
  Li  Li17  1  0.76118508  0.50771663  0.25346845  1
  Li  Li18  1  0.23881492  0.49228337  0.74653155  1
  Li  Li19  1  0.75424818  0.00771663  0.74653155  1
  Li  Li20  1  0.11941078  0.86558478  0.73889219  1
  Li  Li21  1  0.37330740  0.63441522  0.25382599  1
  Li  Li22  1  0.62669260  0.88051859  0.26110781  1
  Li  Li23  1  0.88058922  0.61948141  0.74617401  1
  Li  Li24  1  0.88058922  0.13441522  0.26110781  1
  Li  Li25  1  0.62669260  0.36558478  0.74617401  1
  Li  Li26  1  0.37330740  0.11948141  0.73889219  1
  Li  Li27  1  0.11941078  0.38051859  0.25382599  1
