# generated using pymatgen
data_H15He4
_symmetry_space_group_name_H-M   'P 1'
_cell_length_a   11.31123205
_cell_length_b   11.31123205
_cell_length_c   11.31123205
_cell_angle_alpha   109.47122063
_cell_angle_beta   109.47122063
_cell_angle_gamma   109.47122063
_symmetry_Int_Tables_number   1
_chemical_formula_structural   H15He4
_chemical_formula_sum   'H30 He8'
_cell_volume   1114.05811110
_cell_formula_units_Z   2
loop_
 _symmetry_equiv_pos_site_id
 _symmetry_equiv_pos_as_xyz
  1  'x, y, z'
loop_
 _atom_site_type_symbol
 _atom_site_label
 _atom_site_symmetry_multiplicity
 _atom_site_fract_x
 _atom_site_fract_y
 _atom_site_fract_z
 _atom_site_occupancy
  H  H0  1  0.25000000  0.37500000  0.62500000  1
  H  H1  1  0.75000000  0.12500000  0.87500000  1
  H  H2  1  0.62500000  0.87500000  0.25000000  1
  H  H3  1  0.87500000  0.62500000  0.75000000  1
  H  H4  1  0.12500000  0.75000000  0.37500000  1
  H  H5  1  0.37500000  0.25000000  0.12500000  1
  H  H6  1  0.80764951  0.96887487  0.08527999  1
  H  H7  1  0.61640512  0.53112513  0.83877464  1
  H  H8  1  0.88359488  0.22236952  0.41472001  1
  H  H9  1  0.69235049  0.27763048  0.66122536  1
  H  H10  1  0.03112513  0.83877464  0.11640512  1
  H  H11  1  0.46887487  0.08527999  0.30764951  1
  H  H12  1  0.77763048  0.66122536  0.19235049  1
  H  H13  1  0.72236952  0.41472001  0.38359488  1
  H  H14  1  0.16122536  0.19235049  0.27763048  1
  H  H15  1  0.91472001  0.38359488  0.22236952  1
  H  H16  1  0.33877464  0.11640512  0.53112513  1
  H  H17  1  0.58527999  0.30764951  0.96887487  1
  H  H18  1  0.83877464  0.03112513  0.61640512  1
  H  H19  1  0.08527999  0.46887487  0.80764951  1
  H  H20  1  0.66122536  0.77763048  0.69235049  1
  H  H21  1  0.41472001  0.72236952  0.88359488  1
  H  H22  1  0.19235049  0.16122536  0.77763048  1
  H  H23  1  0.38359488  0.91472001  0.72236952  1
  H  H24  1  0.11640512  0.33877464  0.03112513  1
  H  H25  1  0.30764951  0.58527999  0.46887487  1
  H  H26  1  0.96887487  0.80764951  0.58527999  1
  H  H27  1  0.53112513  0.61640512  0.33877464  1
  H  H28  1  0.22236952  0.88359488  0.91472001  1
  H  H29  1  0.27763048  0.69235049  0.16122536  1
  He  He30  1  0.00000000  0.00000000  0.41877397  1
  He  He31  1  0.91877397  0.50000000  -0.00000000  1
  He  He32  1  0.58122603  0.08122603  0.08122603  1
  He  He33  1  0.50000000  0.41877397  0.50000000  1
  He  He34  1  -0.00000000  0.00000000  0.91877397  1
  He  He35  1  0.41877397  0.50000000  -0.00000000  1
  He  He36  1  0.50000000  0.91877397  0.50000000  1
  He  He37  1  0.08122603  0.58122603  0.58122603  1
