# generated using pymatgen
data_HHeLi
_symmetry_space_group_name_H-M   'P 1'
_cell_length_a   6.13320554
_cell_length_b   6.13320554
_cell_length_c   3.46159964
_cell_angle_alpha   90.00000000
_cell_angle_beta   90.00000000
_cell_angle_gamma   120.00016181
_symmetry_Int_Tables_number   1
_chemical_formula_structural   HHeLi
_chemical_formula_sum   'H3 He3 Li3'
_cell_volume   112.76694091
_cell_formula_units_Z   3
loop_
 _symmetry_equiv_pos_site_id
 _symmetry_equiv_pos_as_xyz
  1  'x, y, z'
loop_
 _atom_site_type_symbol
 _atom_site_label
 _atom_site_symmetry_multiplicity
 _atom_site_fract_x
 _atom_site_fract_y
 _atom_site_fract_z
 _atom_site_occupancy
  H  H0  1  0.25338593  0.99999862  0.00000000  1
  H  H1  1  0.99999862  0.25338593  0.00000000  1
  H  H2  1  0.74661556  0.74661556  0.00000000  1
  He  He3  1  0.59923399  0.99999822  0.50000000  1
  He  He4  1  0.99999822  0.59923399  0.50000000  1
  He  He5  1  0.40076668  0.40076668  0.50000000  1
  Li  Li6  1  0.33333390  0.66666594  0.00000000  1
  Li  Li7  1  0.66666594  0.33333390  0.00000000  1
  Li  Li8  1  0.00000115  0.00000115  0.50000000  1
