# generated using pymatgen
data_H2HeLi
_symmetry_space_group_name_H-M   'P 1'
_cell_length_a   5.58585592
_cell_length_b   6.93072064
_cell_length_c   7.41547714
_cell_angle_alpha   90.00000000
_cell_angle_beta   90.00000000
_cell_angle_gamma   90.00000000
_symmetry_Int_Tables_number   1
_chemical_formula_structural   H2HeLi
_chemical_formula_sum   'H8 He4 Li4'
_cell_volume   287.08283339
_cell_formula_units_Z   4
loop_
 _symmetry_equiv_pos_site_id
 _symmetry_equiv_pos_as_xyz
  1  'x, y, z'
loop_
 _atom_site_type_symbol
 _atom_site_label
 _atom_site_symmetry_multiplicity
 _atom_site_fract_x
 _atom_site_fract_y
 _atom_site_fract_z
 _atom_site_occupancy
  H  H0  1  0.10454070  0.94748581  0.16985095  1
  H  H1  1  0.60454070  0.05251419  0.33014905  1
  H  H2  1  0.89545930  0.44748581  0.83014905  1
  H  H3  1  0.39545930  0.55251419  0.66985095  1
  H  H4  1  0.89545930  0.05251419  0.83014905  1
  H  H5  1  0.39545930  0.94748581  0.66985095  1
  H  H6  1  0.10454070  0.55251419  0.16985095  1
  H  H7  1  0.60454070  0.44748581  0.33014905  1
  He  He8  1  0.36808065  0.75000000  0.37534351  1
  He  He9  1  0.86808065  0.25000000  0.12465649  1
  He  He10  1  0.63191935  0.25000000  0.62465649  1
  He  He11  1  0.13191935  0.75000000  0.87534351  1
  Li  Li12  1  0.63102765  0.75000000  0.02270676  1
  Li  Li13  1  0.13102765  0.25000000  0.47729324  1
  Li  Li14  1  0.36897235  0.25000000  0.97729324  1
  Li  Li15  1  0.86897235  0.75000000  0.52270676  1
