# generated using pymatgen
data_HHe11Li6
_symmetry_space_group_name_H-M   'P 1'
_cell_length_a   5.91657478
_cell_length_b   5.91657478
_cell_length_c   13.56377949
_cell_angle_alpha   90.00000000
_cell_angle_beta   90.00000000
_cell_angle_gamma   120.00000000
_symmetry_Int_Tables_number   1
_chemical_formula_structural   HHe11Li6
_chemical_formula_sum   'H2 He22 Li12'
_cell_volume   411.19901767
_cell_formula_units_Z   2
loop_
 _symmetry_equiv_pos_site_id
 _symmetry_equiv_pos_as_xyz
  1  'x, y, z'
loop_
 _atom_site_type_symbol
 _atom_site_label
 _atom_site_symmetry_multiplicity
 _atom_site_fract_x
 _atom_site_fract_y
 _atom_site_fract_z
 _atom_site_occupancy
  H  H0  1  0.66666700  0.33333400  0.24999997  1
  H  H1  1  0.33333300  0.66666600  0.74999997  1
  He  He2  1  0.34771203  0.17385163  0.42245902  1
  He  He3  1  0.82614837  0.17386040  0.42245902  1
  He  He4  1  0.82613960  0.65228797  0.42245902  1
  He  He5  1  0.65228797  0.82614837  0.92245902  1
  He  He6  1  0.17385163  0.82613960  0.92245902  1
  He  He7  1  0.17386040  0.34771203  0.92245902  1
  He  He8  1  0.17389145  0.82618204  0.57754159  1
  He  He9  1  0.65229059  0.82610855  0.57754159  1
  He  He10  1  0.17381796  0.34770941  0.57754159  1
  He  He11  1  0.82610855  0.17381796  0.07754159  1
  He  He12  1  0.34770941  0.17389145  0.07754159  1
  He  He13  1  0.82618204  0.65229059  0.07754159  1
  He  He14  1  0.29638303  0.14828183  0.74999902  1
  He  He15  1  0.85171817  0.14810119  0.74999902  1
  He  He16  1  0.85189881  0.70361697  0.74999902  1
  He  He17  1  0.70361697  0.85171817  0.24999902  1
  He  He18  1  0.14828183  0.85189881  0.24999902  1
  He  He19  1  0.14810119  0.29638303  0.24999902  1
  He  He20  1  0.66666700  0.33333400  0.91560094  1
  He  He21  1  0.33333300  0.66666600  0.41560094  1
  He  He22  1  0.33333300  0.66666600  0.08439928  1
  He  He23  1  0.66666700  0.33333400  0.58439928  1
  Li  Li24  1  -0.00000161  0.49995293  0.00000106  1
  Li  Li25  1  0.50004707  0.50004546  0.00000106  1
  Li  Li26  1  0.49995454  0.00000161  0.00000106  1
  Li  Li27  1  0.00000161  0.50004707  0.50000106  1
  Li  Li28  1  0.49995293  0.49995454  0.50000106  1
  Li  Li29  1  0.50004546  -0.00000161  0.50000106  1
  Li  Li30  1  0.00000000  0.00000000  0.35422892  1
  Li  Li31  1  0.00000000  -0.00000000  0.85422892  1
  Li  Li32  1  0.00000000  -0.00000000  0.64576973  1
  Li  Li33  1  -0.00000000  0.00000000  0.14576973  1
  Li  Li34  1  0.66666700  0.33333400  0.74999910  1
  Li  Li35  1  0.33333300  0.66666600  0.24999910  1
