# generated using pymatgen
data_HHe
_symmetry_space_group_name_H-M   'P 1'
_cell_length_a   12.50489904
_cell_length_b   12.50489904
_cell_length_c   12.50489904
_cell_angle_alpha   89.99923427
_cell_angle_beta   89.99923427
_cell_angle_gamma   89.99923427
_symmetry_Int_Tables_number   1
_chemical_formula_structural   HHe
_chemical_formula_sum   'H32 He32'
_cell_volume   1955.42232358
_cell_formula_units_Z   32
loop_
 _symmetry_equiv_pos_site_id
 _symmetry_equiv_pos_as_xyz
  1  'x, y, z'
loop_
 _atom_site_type_symbol
 _atom_site_label
 _atom_site_symmetry_multiplicity
 _atom_site_fract_x
 _atom_site_fract_y
 _atom_site_fract_z
 _atom_site_occupancy
  H  H0  1  0.30063231  0.94856943  0.00061120  1
  H  H1  1  0.19936952  0.05144549  0.50078684  1
  H  H2  1  0.69936324  0.44857771  0.49920009  1
  H  H3  1  0.80062687  0.55146131  0.99938686  1
  H  H4  1  0.00061120  0.30063231  0.94856943  1
  H  H5  1  0.50078684  0.19936952  0.05144549  1
  H  H6  1  0.49920009  0.69936324  0.44857771  1
  H  H7  1  0.99938686  0.80062687  0.55146131  1
  H  H8  1  0.94856943  0.00061120  0.30063231  1
  H  H9  1  0.05144549  0.50078684  0.19936952  1
  H  H10  1  0.44857771  0.49920009  0.69936324  1
  H  H11  1  0.55146131  0.99938686  0.80062687  1
  H  H12  1  0.80069398  0.05626223  0.98888182  1
  H  H13  1  0.69929841  0.94371613  0.48887453  1
  H  H14  1  0.19931033  0.55626569  0.51111820  1
  H  H15  1  0.30069935  0.44371465  0.01112226  1
  H  H16  1  0.98888182  0.80069398  0.05626223  1
  H  H17  1  0.48887453  0.69929841  0.94371613  1
  H  H18  1  0.51111820  0.19931033  0.55626569  1
  H  H19  1  0.01112226  0.30069935  0.44371465  1
  H  H20  1  0.05626223  0.98888182  0.80069398  1
  H  H21  1  0.94371613  0.48887453  0.69929841  1
  H  H22  1  0.55626569  0.51111820  0.19931033  1
  H  H23  1  0.44371465  0.01112226  0.30069935  1
  H  H24  1  0.20565348  0.20565348  0.20565348  1
  H  H25  1  0.29436053  0.79434086  0.70565187  1
  H  H26  1  0.79434086  0.70565187  0.29436053  1
  H  H27  1  0.70565187  0.29436053  0.79434086  1
  H  H28  1  0.79926958  0.79926958  0.79926958  1
  H  H29  1  0.70075288  0.20070500  0.29928306  1
  H  H30  1  0.20070500  0.29928306  0.70075288  1
  H  H31  1  0.29928306  0.70075288  0.20070500  1
  He  He32  1  0.24958155  0.22040554  0.97280575  1
  He  He33  1  0.25039944  0.77961020  0.47280030  1
  He  He34  1  0.75040949  0.72038544  0.52719014  1
  He  He35  1  0.74959670  0.27960265  0.02719671  1
  He  He36  1  0.97280575  0.24958155  0.22040554  1
  He  He37  1  0.47280030  0.25039944  0.77961020  1
  He  He38  1  0.52719014  0.75040949  0.72038544  1
  He  He39  1  0.02719671  0.74959670  0.27960265  1
  He  He40  1  0.22040554  0.97280575  0.24958155  1
  He  He41  1  0.77961020  0.47280030  0.25039944  1
  He  He42  1  0.72038544  0.52719014  0.75040949  1
  He  He43  1  0.27960265  0.02719671  0.74959670  1
  He  He44  1  0.75350992  0.77741733  0.02906448  1
  He  He45  1  0.74648813  0.22261238  0.52905311  1
  He  He46  1  0.24649567  0.27739981  0.47096057  1
  He  He47  1  0.25350145  0.72259589  0.97092081  1
  He  He48  1  0.02906448  0.75350992  0.77741733  1
  He  He49  1  0.52905311  0.74648813  0.22261238  1
  He  He50  1  0.47096057  0.24649567  0.27739981  1
  He  He51  1  0.97092081  0.25350145  0.72259589  1
  He  He52  1  0.77741733  0.02906448  0.75350992  1
  He  He53  1  0.22261238  0.52905311  0.74648813  1
  He  He54  1  0.27739981  0.47096057  0.24649567  1
  He  He55  1  0.72259589  0.97092081  0.25350145  1
  He  He56  1  0.02959505  0.02959505  0.02959505  1
  He  He57  1  0.47040086  0.97041030  0.52960952  1
  He  He58  1  0.97041030  0.52960952  0.47040086  1
  He  He59  1  0.52960952  0.47040086  0.97041030  1
  He  He60  1  0.46778087  0.46778087  0.46778087  1
  He  He61  1  0.03219248  0.53221555  0.96778622  1
  He  He62  1  0.53221555  0.96778622  0.03219248  1
  He  He63  1  0.96778622  0.03219248  0.53221555  1
