# generated using pymatgen
data_HHe2Li2
_symmetry_space_group_name_H-M   'P 1'
_cell_length_a   6.41507292
_cell_length_b   6.41507292
_cell_length_c   6.41507292
_cell_angle_alpha   140.16309805
_cell_angle_beta   140.16309805
_cell_angle_gamma   57.60574110
_symmetry_Int_Tables_number   1
_chemical_formula_structural   HHe2Li2
_chemical_formula_sum   'H1 He2 Li2'
_cell_volume   107.40096189
_cell_formula_units_Z   1
loop_
 _symmetry_equiv_pos_site_id
 _symmetry_equiv_pos_as_xyz
  1  'x, y, z'
loop_
 _atom_site_type_symbol
 _atom_site_label
 _atom_site_symmetry_multiplicity
 _atom_site_fract_x
 _atom_site_fract_y
 _atom_site_fract_z
 _atom_site_occupancy
  H  H0  1  0.00000000  0.00000000  0.00000000  1
  He  He1  1  0.25000000  0.75000000  0.50000000  1
  He  He2  1  0.75000000  0.25000000  0.50000000  1
  Li  Li3  1  0.37443711  0.37443711  0.00000000  1
  Li  Li4  1  0.62556289  0.62556289  0.00000000  1
