# generated using pymatgen
data_HHe8LiBe2
_symmetry_space_group_name_H-M   'P 1'
_cell_length_a   7.66096447
_cell_length_b   7.66096447
_cell_length_c   7.78747515
_cell_angle_alpha   66.04228906
_cell_angle_beta   66.04228906
_cell_angle_gamma   92.77387251
_symmetry_Int_Tables_number   1
_chemical_formula_structural   HHe8LiBe2
_chemical_formula_sum   'H2 He16 Li2 Be4'
_cell_volume   369.03081569
_cell_formula_units_Z   2
loop_
 _symmetry_equiv_pos_site_id
 _symmetry_equiv_pos_as_xyz
  1  'x, y, z'
loop_
 _atom_site_type_symbol
 _atom_site_label
 _atom_site_symmetry_multiplicity
 _atom_site_fract_x
 _atom_site_fract_y
 _atom_site_fract_z
 _atom_site_occupancy
  H  H0  1  0.30020844  0.69979156  -0.00000000  1
  H  H1  1  0.69979156  0.30020844  0.00000000  1
  He  He2  1  0.65840037  0.90941412  0.73333366  1
  He  He3  1  0.09058588  0.34159963  0.26666634  1
  He  He4  1  0.34159963  0.09058588  0.26666634  1
  He  He5  1  0.90941412  0.65840037  0.73333366  1
  He  He6  1  0.30467739  0.78609076  0.64143516  1
  He  He7  1  0.21390924  0.69532261  0.35856484  1
  He  He8  1  0.69532261  0.21390924  0.35856484  1
  He  He9  1  0.78609076  0.30467739  0.64143516  1
  He  He10  1  0.41875426  0.41875426  0.90540571  1
  He  He11  1  0.58124574  0.58124574  0.09459429  1
  He  He12  1  0.29202775  0.04183546  0.94871116  1
  He  He13  1  0.95816454  0.70797225  0.05128884  1
  He  He14  1  0.70797225  0.95816454  0.05128884  1
  He  He15  1  0.04183546  0.29202775  0.94871116  1
  He  He16  1  0.01387123  0.01387123  0.65371747  1
  He  He17  1  0.98612877  0.98612877  0.34628253  1
  Li  Li18  1  0.68720753  0.68720753  0.46629847  1
  Li  Li19  1  0.31279247  0.31279247  0.53370153  1
  Be  Be20  1  0.83902913  0.16097087  0.50000000  1
  Be  Be21  1  0.16097087  0.83902913  0.50000000  1
  Be  Be22  1  0.79937534  0.79937534  0.93351305  1
  Be  Be23  1  0.20062466  0.20062466  0.06648695  1
