# generated using pymatgen
data_HHe6LiBe
_symmetry_space_group_name_H-M   'P 1'
_cell_length_a   5.16604233
_cell_length_b   5.16590518
_cell_length_c   10.34964220
_cell_angle_alpha   90.00003463
_cell_angle_beta   89.99871407
_cell_angle_gamma   120.00214304
_symmetry_Int_Tables_number   1
_chemical_formula_structural   HHe6LiBe
_chemical_formula_sum   'H2 He12 Li2 Be2'
_cell_volume   239.19438438
_cell_formula_units_Z   2
loop_
 _symmetry_equiv_pos_site_id
 _symmetry_equiv_pos_as_xyz
  1  'x, y, z'
loop_
 _atom_site_type_symbol
 _atom_site_label
 _atom_site_symmetry_multiplicity
 _atom_site_fract_x
 _atom_site_fract_y
 _atom_site_fract_z
 _atom_site_occupancy
  H  H0  1  0.33333395  0.66666693  0.24999997  1
  H  H1  1  0.66666605  0.33333307  0.75000003  1
  He  He2  1  0.03200634  0.64541767  0.14851500  1
  He  He3  1  0.35458288  0.38658317  0.14851464  1
  He  He4  1  0.61342050  0.96800548  0.14851436  1
  He  He5  1  0.61341166  0.64542016  0.35148543  1
  He  He6  1  0.03199896  0.38658253  0.35148512  1
  He  He7  1  0.35458667  0.96800634  0.35148553  1
  He  He8  1  0.96799366  0.35458233  0.85148500  1
  He  He9  1  0.64541712  0.61341683  0.85148536  1
  He  He10  1  0.38657950  0.03199452  0.85148564  1
  He  He11  1  0.38658834  0.35457984  0.64851457  1
  He  He12  1  0.96800104  0.61341747  0.64851488  1
  He  He13  1  0.64541333  0.03199366  0.64851447  1
  Li  Li14  1  0.66667282  0.33334220  0.24999999  1
  Li  Li15  1  0.33332718  0.66665780  0.75000001  1
  Be  Be16  1  -0.00000000  -0.00000000  -0.00000000  1
  Be  Be17  1  0.00000000  0.00000000  0.50000000  1
