# generated using pymatgen
data_H2HeLi7Be2
_symmetry_space_group_name_H-M   'P 1'
_cell_length_a   7.90952137
_cell_length_b   7.90952137
_cell_length_c   5.07017521
_cell_angle_alpha   90.00000000
_cell_angle_beta   90.00000000
_cell_angle_gamma   90.00000000
_symmetry_Int_Tables_number   1
_chemical_formula_structural   H2HeLi7Be2
_chemical_formula_sum   'H4 He2 Li14 Be4'
_cell_volume   317.19283953
_cell_formula_units_Z   2
loop_
 _symmetry_equiv_pos_site_id
 _symmetry_equiv_pos_as_xyz
  1  'x, y, z'
loop_
 _atom_site_type_symbol
 _atom_site_label
 _atom_site_symmetry_multiplicity
 _atom_site_fract_x
 _atom_site_fract_y
 _atom_site_fract_z
 _atom_site_occupancy
  H  H0  1  0.32999916  0.17000084  0.50120889  1
  H  H1  1  0.67000084  0.82999916  0.50120889  1
  H  H2  1  0.17000084  0.67000084  0.49879111  1
  H  H3  1  0.82999916  0.32999916  0.49879111  1
  He  He4  1  0.00000000  0.00000000  0.00000000  1
  He  He5  1  0.50000000  0.50000000  0.00000000  1
  Li  Li6  1  0.00000000  0.50000000  0.81447576  1
  Li  Li7  1  0.50000000  -0.00000000  0.18552424  1
  Li  Li8  1  0.14297012  0.35702988  0.24931395  1
  Li  Li9  1  0.85702988  0.64297012  0.24931395  1
  Li  Li10  1  0.35702988  0.85702988  0.75068605  1
  Li  Li11  1  0.64297012  0.14297012  0.75068605  1
  Li  Li12  1  0.08231737  0.18586602  0.77703302  1
  Li  Li13  1  0.91768263  0.81413398  0.77703302  1
  Li  Li14  1  0.18586602  0.91768263  0.22296698  1
  Li  Li15  1  0.81413398  0.08231737  0.22296698  1
  Li  Li16  1  0.41768263  0.68586602  0.22296698  1
  Li  Li17  1  0.58231737  0.31413398  0.22296698  1
  Li  Li18  1  0.31413398  0.41768263  0.77703302  1
  Li  Li19  1  0.68586602  0.58231737  0.77703302  1
  Be  Be20  1  0.14078348  0.35921652  0.93105637  1
  Be  Be21  1  0.85921652  0.64078348  0.93105637  1
  Be  Be22  1  0.35921652  0.85921652  0.06894363  1
  Be  Be23  1  0.64078348  0.14078348  0.06894363  1
