# generated using pymatgen
data_HHe
_symmetry_space_group_name_H-M   'P 1'
_cell_length_a   4.81559838
_cell_length_b   9.31324370
_cell_length_c   10.00914996
_cell_angle_alpha   90.00000000
_cell_angle_beta   90.00000000
_cell_angle_gamma   90.00000000
_symmetry_Int_Tables_number   1
_chemical_formula_structural   HHe
_chemical_formula_sum   'H8 He8'
_cell_volume   448.89877772
_cell_formula_units_Z   8
loop_
 _symmetry_equiv_pos_site_id
 _symmetry_equiv_pos_as_xyz
  1  'x, y, z'
loop_
 _atom_site_type_symbol
 _atom_site_label
 _atom_site_symmetry_multiplicity
 _atom_site_fract_x
 _atom_site_fract_y
 _atom_site_fract_z
 _atom_site_occupancy
  H  H0  1  0.25000000  0.28969492  0.08441578  1
  H  H1  1  0.75000000  0.21030508  0.58441578  1
  H  H2  1  0.75000000  0.71030508  0.91558422  1
  H  H3  1  0.25000000  0.78969492  0.41558422  1
  H  H4  1  0.25000000  0.17313589  0.15037032  1
  H  H5  1  0.75000000  0.32686411  0.65037032  1
  H  H6  1  0.75000000  0.82686411  0.84962968  1
  H  H7  1  0.25000000  0.67313589  0.34962968  1
  He  He8  1  0.25000000  0.83891826  0.07170290  1
  He  He9  1  0.75000000  0.66108174  0.57170290  1
  He  He10  1  0.75000000  0.16108174  0.92829710  1
  He  He11  1  0.25000000  0.33891826  0.42829710  1
  He  He12  1  0.25000000  0.49136339  0.83059322  1
  He  He13  1  0.75000000  0.00863661  0.33059322  1
  He  He14  1  0.75000000  0.50863661  0.16940678  1
  He  He15  1  0.25000000  0.99136339  0.66940678  1
