# generated using pymatgen
data_H4He3
_symmetry_space_group_name_H-M   'P 1'
_cell_length_a   7.80699769
_cell_length_b   7.80699769
_cell_length_c   5.66022366
_cell_angle_alpha   90.00001297
_cell_angle_beta   90.00001297
_cell_angle_gamma   119.99992660
_symmetry_Int_Tables_number   1
_chemical_formula_structural   H4He3
_chemical_formula_sum   'H16 He12'
_cell_volume   298.76701399
_cell_formula_units_Z   4
loop_
 _symmetry_equiv_pos_site_id
 _symmetry_equiv_pos_as_xyz
  1  'x, y, z'
loop_
 _atom_site_type_symbol
 _atom_site_label
 _atom_site_symmetry_multiplicity
 _atom_site_fract_x
 _atom_site_fract_y
 _atom_site_fract_z
 _atom_site_occupancy
  H  H0  1  0.65553845  0.60997157  0.43168707  1
  H  H1  1  0.39003324  0.04557010  0.43169137  1
  H  H2  1  0.95443174  0.34446199  0.43169045  1
  H  H3  1  0.60997157  0.65553845  0.93168707  1
  H  H4  1  0.04557010  0.39003324  0.93169137  1
  H  H5  1  0.34446199  0.95443174  0.93169045  1
  H  H6  1  0.31479269  0.31883235  0.69711913  1
  H  H7  1  0.68116697  0.99596151  0.69712266  1
  H  H8  1  0.00403744  0.68520343  0.69712381  1
  H  H9  1  0.31883235  0.31479269  0.19711913  1
  H  H10  1  0.99596151  0.68116697  0.19712266  1
  H  H11  1  0.68520343  0.00403744  0.19712381  1
  H  H12  1  0.33333253  0.66666779  0.60320490  1
  H  H13  1  0.66666779  0.33333253  0.10320490  1
  H  H14  1  -0.00000016  0.99999948  0.45239531  1
  H  H15  1  0.99999948  -0.00000016  0.95239531  1
  He  He16  1  0.08238971  0.51199930  0.65890694  1
  He  He17  1  0.48799856  0.57039021  0.65890396  1
  He  He18  1  0.42961121  0.91761121  0.65890824  1
  He  He19  1  0.51199930  0.08238971  0.15890694  1
  He  He20  1  0.57039021  0.48799856  0.15890396  1
  He  He21  1  0.91761121  0.42961121  0.15890824  1
  He  He22  1  0.25353291  0.16742370  0.45094644  1
  He  He23  1  0.83257370  0.08610713  0.45094901  1
  He  He24  1  0.91389435  0.74646689  0.45095070  1
  He  He25  1  0.16742370  0.25353291  0.95094644  1
  He  He26  1  0.08610713  0.83257370  0.95094901  1
  He  He27  1  0.74646689  0.91389435  0.95095070  1
