# generated using pymatgen
data_H2HeLiBe3
_symmetry_space_group_name_H-M   'P 1'
_cell_length_a   4.27621770
_cell_length_b   4.27621770
_cell_length_c   15.25294452
_cell_angle_alpha   90.00000000
_cell_angle_beta   90.00000000
_cell_angle_gamma   90.00000000
_symmetry_Int_Tables_number   1
_chemical_formula_structural   H2HeLiBe3
_chemical_formula_sum   'H4 He2 Li2 Be6'
_cell_volume   278.91592001
_cell_formula_units_Z   2
loop_
 _symmetry_equiv_pos_site_id
 _symmetry_equiv_pos_as_xyz
  1  'x, y, z'
loop_
 _atom_site_type_symbol
 _atom_site_label
 _atom_site_symmetry_multiplicity
 _atom_site_fract_x
 _atom_site_fract_y
 _atom_site_fract_z
 _atom_site_occupancy
  H  H0  1  0.25000000  0.25000000  0.35249994  1
  H  H1  1  0.75000000  0.75000000  0.64750006  1
  H  H2  1  0.25000000  0.25000000  0.09497836  1
  H  H3  1  0.75000000  0.75000000  0.90502164  1
  He  He4  1  0.75000000  0.75000000  0.42577227  1
  He  He5  1  0.25000000  0.25000000  0.57422773  1
  Li  Li6  1  0.75000000  0.75000000  0.21352907  1
  Li  Li7  1  0.25000000  0.25000000  0.78647093  1
  Be  Be8  1  0.75000000  0.25000000  0.23790271  1
  Be  Be9  1  0.25000000  0.75000000  0.23790271  1
  Be  Be10  1  0.25000000  0.75000000  0.76209729  1
  Be  Be11  1  0.75000000  0.25000000  0.76209729  1
  Be  Be12  1  0.75000000  0.75000000  0.07529661  1
  Be  Be13  1  0.25000000  0.25000000  0.92470339  1
