# generated using pymatgen
data_HHe4Li2
_symmetry_space_group_name_H-M   'P 1'
_cell_length_a   7.16854415
_cell_length_b   7.16854415
_cell_length_c   7.16854415
_cell_angle_alpha   60.00000000
_cell_angle_beta   60.00000000
_cell_angle_gamma   60.00000000
_symmetry_Int_Tables_number   1
_chemical_formula_structural   HHe4Li2
_chemical_formula_sum   'H2 He8 Li4'
_cell_volume   260.48210617
_cell_formula_units_Z   2
loop_
 _symmetry_equiv_pos_site_id
 _symmetry_equiv_pos_as_xyz
  1  'x, y, z'
loop_
 _atom_site_type_symbol
 _atom_site_label
 _atom_site_symmetry_multiplicity
 _atom_site_fract_x
 _atom_site_fract_y
 _atom_site_fract_z
 _atom_site_occupancy
  H  H0  1  0.37500000  0.87500000  0.87500000  1
  H  H1  1  0.62500000  0.12500000  0.12500000  1
  He  He2  1  0.76577252  0.74474249  0.74474249  1
  He  He3  1  0.24474249  0.26577252  0.74474249  1
  He  He4  1  0.24474249  0.74474249  0.74474249  1
  He  He5  1  0.24474249  0.74474249  0.26577252  1
  He  He6  1  0.75525751  0.73422748  0.25525751  1
  He  He7  1  0.23422748  0.25525751  0.25525751  1
  He  He8  1  0.75525751  0.25525751  0.25525751  1
  He  He9  1  0.75525751  0.25525751  0.73422748  1
  Li  Li10  1  0.50000000  0.50000000  0.50000000  1
  Li  Li11  1  0.00000000  -0.00000000  0.50000000  1
  Li  Li12  1  0.00000000  0.50000000  0.50000000  1
  Li  Li13  1  0.00000000  0.50000000  -0.00000000  1
