# generated using pymatgen
data_H7He3Li
_symmetry_space_group_name_H-M   'P 1'
_cell_length_a   6.72808985
_cell_length_b   6.72808985
_cell_length_c   7.78919373
_cell_angle_alpha   90.00000000
_cell_angle_beta   90.00000000
_cell_angle_gamma   110.52485766
_symmetry_Int_Tables_number   1
_chemical_formula_structural   H7He3Li
_chemical_formula_sum   'H14 He6 Li2'
_cell_volume   330.21226731
_cell_formula_units_Z   2
loop_
 _symmetry_equiv_pos_site_id
 _symmetry_equiv_pos_as_xyz
  1  'x, y, z'
loop_
 _atom_site_type_symbol
 _atom_site_label
 _atom_site_symmetry_multiplicity
 _atom_site_fract_x
 _atom_site_fract_y
 _atom_site_fract_z
 _atom_site_occupancy
  H  H0  1  0.18795742  0.43960947  0.03250518  1
  H  H1  1  0.81204258  0.56039053  0.53250518  1
  H  H2  1  0.43960947  0.18795742  0.46749482  1
  H  H3  1  0.56039053  0.81204258  0.96749482  1
  H  H4  1  0.81204258  0.56039053  0.96749482  1
  H  H5  1  0.18795742  0.43960947  0.46749482  1
  H  H6  1  0.56039053  0.81204258  0.53250518  1
  H  H7  1  0.43960947  0.18795742  0.03250518  1
  H  H8  1  0.88831375  0.15174624  0.75000000  1
  H  H9  1  0.11168625  0.84825376  0.25000000  1
  H  H10  1  0.15174624  0.88831375  0.75000000  1
  H  H11  1  0.84825376  0.11168625  0.25000000  1
  H  H12  1  0.42200244  0.42200244  0.75000000  1
  H  H13  1  0.57799756  0.57799756  0.25000000  1
  He  He14  1  -0.00000000  0.00000000  0.00000000  1
  He  He15  1  0.00000000  -0.00000000  0.50000000  1
  He  He16  1  0.06296035  0.51855875  0.75000000  1
  He  He17  1  0.93703965  0.48144125  0.25000000  1
  He  He18  1  0.51855875  0.06296035  0.75000000  1
  He  He19  1  0.48144125  0.93703965  0.25000000  1
  Li  Li20  1  0.50000000  0.50000000  0.00000000  1
  Li  Li21  1  0.50000000  0.50000000  0.50000000  1
