# generated using pymatgen
data_H2HeLi4
_symmetry_space_group_name_H-M   'P 1'
_cell_length_a   12.79940017
_cell_length_b   12.79940017
_cell_length_c   12.79940017
_cell_angle_alpha   156.33628379
_cell_angle_beta   156.33628379
_cell_angle_gamma   33.71241229
_symmetry_Int_Tables_number   1
_chemical_formula_structural   H2HeLi4
_chemical_formula_sum   'H8 He4 Li16'
_cell_volume   337.47013330
_cell_formula_units_Z   4
loop_
 _symmetry_equiv_pos_site_id
 _symmetry_equiv_pos_as_xyz
  1  'x, y, z'
loop_
 _atom_site_type_symbol
 _atom_site_label
 _atom_site_symmetry_multiplicity
 _atom_site_fract_x
 _atom_site_fract_y
 _atom_site_fract_z
 _atom_site_occupancy
  H  H0  1  0.44989431  0.69989431  0.25000000  1
  H  H1  1  0.19989431  0.94989431  0.75000000  1
  H  H2  1  0.05010569  0.80010569  0.75000000  1
  H  H3  1  0.30010569  0.55010569  0.25000000  1
  H  H4  1  0.55010569  0.30010569  0.75000000  1
  H  H5  1  0.80010569  0.05010569  0.25000000  1
  H  H6  1  0.94989431  0.19989431  0.25000000  1
  H  H7  1  0.69989431  0.44989431  0.75000000  1
  He  He8  1  0.62500000  0.87500000  0.25000000  1
  He  He9  1  0.37500000  0.12500000  0.75000000  1
  He  He10  1  0.87500000  0.62500000  0.75000000  1
  He  He11  1  0.12500000  0.37500000  0.25000000  1
  Li  Li12  1  0.54441224  0.79441224  0.25000000  1
  Li  Li13  1  0.29441224  0.04441224  0.75000000  1
  Li  Li14  1  0.95558776  0.70558776  0.75000000  1
  Li  Li15  1  0.20558776  0.45558776  0.25000000  1
  Li  Li16  1  0.45558776  0.20558776  0.75000000  1
  Li  Li17  1  0.70558776  0.95558776  0.25000000  1
  Li  Li18  1  0.04441224  0.29441224  0.25000000  1
  Li  Li19  1  0.79441224  0.54441224  0.75000000  1
  Li  Li20  1  0.06997542  0.31997542  0.63995085  1
  Li  Li21  1  0.68002458  0.93002458  0.86004915  1
  Li  Li22  1  0.43002458  0.56997542  0.75000000  1
  Li  Li23  1  0.81997542  0.18002458  0.75000000  1
  Li  Li24  1  0.93002458  0.68002458  0.36004915  1
  Li  Li25  1  0.31997542  0.06997542  0.13995085  1
  Li  Li26  1  0.56997542  0.43002458  0.25000000  1
  Li  Li27  1  0.18002458  0.81997542  0.25000000  1
