# generated using pymatgen
data_HHeLi4
_symmetry_space_group_name_H-M   'P 1'
_cell_length_a   6.90739014
_cell_length_b   6.90739014
_cell_length_c   6.90739014
_cell_angle_alpha   134.85855479
_cell_angle_beta   134.85855479
_cell_angle_gamma   65.75005300
_symmetry_Int_Tables_number   1
_chemical_formula_structural   HHeLi4
_chemical_formula_sum   'H2 He2 Li8'
_cell_volume   163.10611204
_cell_formula_units_Z   2
loop_
 _symmetry_equiv_pos_site_id
 _symmetry_equiv_pos_as_xyz
  1  'x, y, z'
loop_
 _atom_site_type_symbol
 _atom_site_label
 _atom_site_symmetry_multiplicity
 _atom_site_fract_x
 _atom_site_fract_y
 _atom_site_fract_z
 _atom_site_occupancy
  H  H0  1  0.62500000  0.87500000  0.25000000  1
  H  H1  1  0.37500000  0.12500000  0.75000000  1
  He  He2  1  0.12500000  0.37500000  0.25000000  1
  He  He3  1  0.87500000  0.62500000  0.75000000  1
  Li  Li4  1  0.06013378  0.21563083  0.85698190  1
  Li  Li5  1  0.35864893  0.70315188  0.64301810  1
  Li  Li6  1  0.71563083  0.85864893  0.65549705  1
  Li  Li7  1  0.20315188  0.56013378  0.84450295  1
  Li  Li8  1  0.93986622  0.78436917  0.14301810  1
  Li  Li9  1  0.64135107  0.29684812  0.35698190  1
  Li  Li10  1  0.28436917  0.14135107  0.34450295  1
  Li  Li11  1  0.79684812  0.43986622  0.15549705  1
