# generated using pymatgen
data_H2He
_symmetry_space_group_name_H-M   'P 1'
_cell_length_a   3.71354042
_cell_length_b   4.78547594
_cell_length_c   4.78625852
_cell_angle_alpha   90.00000000
_cell_angle_beta   90.00000000
_cell_angle_gamma   90.00000000
_symmetry_Int_Tables_number   1
_chemical_formula_structural   H2He
_chemical_formula_sum   'H8 He4'
_cell_volume   85.05687929
_cell_formula_units_Z   4
loop_
 _symmetry_equiv_pos_site_id
 _symmetry_equiv_pos_as_xyz
  1  'x, y, z'
loop_
 _atom_site_type_symbol
 _atom_site_label
 _atom_site_symmetry_multiplicity
 _atom_site_fract_x
 _atom_site_fract_y
 _atom_site_fract_z
 _atom_site_occupancy
  H  H0  1  0.10699596  0.66017239  0.43138073  1
  H  H1  1  0.60699596  0.83982761  0.56861927  1
  H  H2  1  0.89300404  0.33982761  0.93138073  1
  H  H3  1  0.39300404  0.16017239  0.06861927  1
  H  H4  1  0.89300404  0.33982761  0.56861927  1
  H  H5  1  0.39300404  0.16017239  0.43138073  1
  H  H6  1  0.10699596  0.66017239  0.06861927  1
  H  H7  1  0.60699596  0.83982761  0.93138073  1
  He  He8  1  0.37561014  0.47989763  0.75000000  1
  He  He9  1  0.87561014  0.02010237  0.25000000  1
  He  He10  1  0.62438986  0.52010237  0.25000000  1
  He  He11  1  0.12438986  0.97989763  0.75000000  1
