# generated using pymatgen
data_HHe2Li3
_symmetry_space_group_name_H-M   'P 1'
_cell_length_a   7.94968506
_cell_length_b   5.72742373
_cell_length_c   7.88231791
_cell_angle_alpha   68.68406158
_cell_angle_beta   90.00000000
_cell_angle_gamma   90.00000000
_symmetry_Int_Tables_number   1
_chemical_formula_structural   HHe2Li3
_chemical_formula_sum   'H4 He8 Li12'
_cell_volume   334.33979352
_cell_formula_units_Z   4
loop_
 _symmetry_equiv_pos_site_id
 _symmetry_equiv_pos_as_xyz
  1  'x, y, z'
loop_
 _atom_site_type_symbol
 _atom_site_label
 _atom_site_symmetry_multiplicity
 _atom_site_fract_x
 _atom_site_fract_y
 _atom_site_fract_z
 _atom_site_occupancy
  H  H0  1  0.67805706  0.96257648  0.82333765  1
  H  H1  1  0.17805706  0.53742352  0.67666235  1
  H  H2  1  0.32194294  0.03742352  0.17666235  1
  H  H3  1  0.82194294  0.46257648  0.32333765  1
  He  He4  1  0.57527248  0.80709917  0.77599052  1
  He  He5  1  0.07527248  0.69290083  0.72400948  1
  He  He6  1  0.42472752  0.19290083  0.22400948  1
  He  He7  1  0.92472752  0.30709917  0.27599052  1
  He  He8  1  0.77964372  0.11926419  0.87045534  1
  He  He9  1  0.27964372  0.38073581  0.62954466  1
  He  He10  1  0.22035628  0.88073581  0.12954466  1
  He  He11  1  0.72035628  0.61926419  0.37045534  1
  Li  Li12  1  0.53134609  0.24094626  0.50797031  1
  Li  Li13  1  0.03134609  0.25905374  0.99202969  1
  Li  Li14  1  0.46865391  0.75905374  0.49202969  1
  Li  Li15  1  0.96865391  0.74094626  0.00797031  1
  Li  Li16  1  0.97823782  0.13646998  0.62225204  1
  Li  Li17  1  0.47823782  0.36353002  0.87774796  1
  Li  Li18  1  0.02176218  0.86353002  0.37774796  1
  Li  Li19  1  0.52176218  0.63646998  0.12225204  1
  Li  Li20  1  0.79207244  0.57089166  0.68682774  1
  Li  Li21  1  0.29207244  0.92910834  0.81317226  1
  Li  Li22  1  0.20792756  0.42910834  0.31317226  1
  Li  Li23  1  0.70792756  0.07089166  0.18682774  1
