# generated using pymatgen
data_H2He
_symmetry_space_group_name_H-M   'P 1'
_cell_length_a   3.77334193
_cell_length_b   5.26033303
_cell_length_c   6.63498441
_cell_angle_alpha   90.00000000
_cell_angle_beta   90.00000000
_cell_angle_gamma   90.00000000
_symmetry_Int_Tables_number   1
_chemical_formula_structural   H2He
_chemical_formula_sum   'H8 He4'
_cell_volume   131.69803892
_cell_formula_units_Z   4
loop_
 _symmetry_equiv_pos_site_id
 _symmetry_equiv_pos_as_xyz
  1  'x, y, z'
loop_
 _atom_site_type_symbol
 _atom_site_label
 _atom_site_symmetry_multiplicity
 _atom_site_fract_x
 _atom_site_fract_y
 _atom_site_fract_z
 _atom_site_occupancy
  H  H0  1  0.25000000  0.24460195  0.58181619  1
  H  H1  1  0.75000000  0.25539805  0.08181619  1
  H  H2  1  0.75000000  0.75539805  0.41818381  1
  H  H3  1  0.25000000  0.74460195  0.91818381  1
  H  H4  1  0.25000000  0.00095972  0.24666277  1
  H  H5  1  0.75000000  0.49904028  0.74666277  1
  H  H6  1  0.75000000  0.99904028  0.75333723  1
  H  H7  1  0.25000000  0.50095972  0.25333723  1
  He  He8  1  0.25000000  0.25060319  0.91294885  1
  He  He9  1  0.75000000  0.24939681  0.41294885  1
  He  He10  1  0.75000000  0.74939681  0.08705115  1
  He  He11  1  0.25000000  0.75060319  0.58705115  1
