# generated using pymatgen
data_HHe2Li
_symmetry_space_group_name_H-M   'P 1'
_cell_length_a   12.63525615
_cell_length_b   12.63525615
_cell_length_c   12.63525615
_cell_angle_alpha   158.31670981
_cell_angle_beta   158.31670981
_cell_angle_gamma   30.85357498
_symmetry_Int_Tables_number   1
_chemical_formula_structural   HHe2Li
_chemical_formula_sum   'H2 He4 Li2'
_cell_volume   275.18943908
_cell_formula_units_Z   2
loop_
 _symmetry_equiv_pos_site_id
 _symmetry_equiv_pos_as_xyz
  1  'x, y, z'
loop_
 _atom_site_type_symbol
 _atom_site_label
 _atom_site_symmetry_multiplicity
 _atom_site_fract_x
 _atom_site_fract_y
 _atom_site_fract_z
 _atom_site_occupancy
  H  H0  1  0.88433687  0.88433687  0.00000000  1
  H  H1  1  0.11566313  0.11566313  0.00000000  1
  He  He2  1  0.00000000  0.50000000  0.50000000  1
  He  He3  1  0.50000000  -0.00000000  0.50000000  1
  He  He4  1  0.67032450  0.67032450  -0.00000000  1
  He  He5  1  0.32967550  0.32967550  -0.00000000  1
  Li  Li6  1  0.75000000  0.25000000  0.50000000  1
  Li  Li7  1  0.25000000  0.75000000  0.50000000  1
