# generated using pymatgen
data_HHeLi
_symmetry_space_group_name_H-M   'P 1'
_cell_length_a   4.71669740
_cell_length_b   7.80869423
_cell_length_c   7.69427219
_cell_angle_alpha   90.00000000
_cell_angle_beta   90.00000000
_cell_angle_gamma   90.00000000
_symmetry_Int_Tables_number   1
_chemical_formula_structural   HHeLi
_chemical_formula_sum   'H4 He4 Li4'
_cell_volume   283.38964576
_cell_formula_units_Z   4
loop_
 _symmetry_equiv_pos_site_id
 _symmetry_equiv_pos_as_xyz
  1  'x, y, z'
loop_
 _atom_site_type_symbol
 _atom_site_label
 _atom_site_symmetry_multiplicity
 _atom_site_fract_x
 _atom_site_fract_y
 _atom_site_fract_z
 _atom_site_occupancy
  H  H0  1  0.25000000  0.17721245  0.91309672  1
  H  H1  1  0.75000000  0.32278755  0.41309672  1
  H  H2  1  0.75000000  0.82278755  0.08690328  1
  H  H3  1  0.25000000  0.67721245  0.58690328  1
  He  He4  1  0.25000000  0.31275099  0.58883580  1
  He  He5  1  0.75000000  0.18724901  0.08883580  1
  He  He6  1  0.75000000  0.68724901  0.41116420  1
  He  He7  1  0.25000000  0.81275099  0.91116420  1
  Li  Li8  1  0.25000000  0.01403300  0.31045640  1
  Li  Li9  1  0.75000000  0.48596700  0.81045640  1
  Li  Li10  1  0.75000000  0.98596700  0.68954360  1
  Li  Li11  1  0.25000000  0.51403300  0.18954360  1
