# generated using pymatgen
data_H3He
_symmetry_space_group_name_H-M   'P 1'
_cell_length_a   6.57605039
_cell_length_b   6.57605039
_cell_length_c   6.57605039
_cell_angle_alpha   109.47122063
_cell_angle_beta   109.47122063
_cell_angle_gamma   109.47122063
_symmetry_Int_Tables_number   1
_chemical_formula_structural   H3He
_chemical_formula_sum   'H12 He4'
_cell_volume   218.91398473
_cell_formula_units_Z   4
loop_
 _symmetry_equiv_pos_site_id
 _symmetry_equiv_pos_as_xyz
  1  'x, y, z'
loop_
 _atom_site_type_symbol
 _atom_site_label
 _atom_site_symmetry_multiplicity
 _atom_site_fract_x
 _atom_site_fract_y
 _atom_site_fract_z
 _atom_site_occupancy
  H  H0  1  0.25836049  0.50003595  0.24167546  1
  H  H1  1  0.25836049  0.01668503  0.75832454  1
  H  H2  1  0.74163951  0.98331497  0.24167546  1
  H  H3  1  0.74163951  0.49996405  0.75832454  1
  H  H4  1  0.98331497  0.24167546  0.74163951  1
  H  H5  1  0.49996405  0.75832454  0.74163951  1
  H  H6  1  0.50003595  0.24167546  0.25836049  1
  H  H7  1  0.01668503  0.75832454  0.25836049  1
  H  H8  1  0.75832454  0.25836049  0.01668503  1
  H  H9  1  0.24167546  0.25836049  0.50003595  1
  H  H10  1  0.75832454  0.74163951  0.49996405  1
  H  H11  1  0.24167546  0.74163951  0.98331497  1
  He  He12  1  -0.00000000  0.50000000  -0.00000000  1
  He  He13  1  0.50000000  0.00000000  0.00000000  1
  He  He14  1  -0.00000000  -0.00000000  0.50000000  1
  He  He15  1  0.50000000  0.50000000  0.50000000  1
