# generated using pymatgen
data_HHe2
_symmetry_space_group_name_H-M   'P 1'
_cell_length_a   5.28384735
_cell_length_b   5.28384735
_cell_length_c   8.93828344
_cell_angle_alpha   90.00000000
_cell_angle_beta   90.00000000
_cell_angle_gamma   120.01087087
_symmetry_Int_Tables_number   1
_chemical_formula_structural   HHe2
_chemical_formula_sum   'H4 He8'
_cell_volume   216.09150555
_cell_formula_units_Z   4
loop_
 _symmetry_equiv_pos_site_id
 _symmetry_equiv_pos_as_xyz
  1  'x, y, z'
loop_
 _atom_site_type_symbol
 _atom_site_label
 _atom_site_symmetry_multiplicity
 _atom_site_fract_x
 _atom_site_fract_y
 _atom_site_fract_z
 _atom_site_occupancy
  H  H0  1  0.33333799  0.66666201  0.06471087  1
  H  H1  1  0.66666201  0.33333799  0.56471087  1
  H  H2  1  0.66666201  0.33333799  0.93528913  1
  H  H3  1  0.33333799  0.66666201  0.43528913  1
  He  He4  1  -0.00000000  -0.00000000  0.00000000  1
  He  He5  1  0.00000000  0.00000000  0.50000000  1
  He  He6  1  0.83124525  0.66250559  0.25000000  1
  He  He7  1  0.33749441  0.16875475  0.25000000  1
  He  He8  1  0.83125374  0.16874626  0.25000000  1
  He  He9  1  0.16875475  0.33749441  0.75000000  1
  He  He10  1  0.66250559  0.83124525  0.75000000  1
  He  He11  1  0.16874626  0.83125374  0.75000000  1
