# generated using pymatgen
data_H11He3Li4
_symmetry_space_group_name_H-M   'P 1'
_cell_length_a   10.12509969
_cell_length_b   9.42779048
_cell_length_c   7.68063518
_cell_angle_alpha   78.94807588
_cell_angle_beta   64.44054345
_cell_angle_gamma   73.43480139
_symmetry_Int_Tables_number   1
_chemical_formula_structural   H11He3Li4
_chemical_formula_sum   'H22 He6 Li8'
_cell_volume   631.96786432
_cell_formula_units_Z   2
loop_
 _symmetry_equiv_pos_site_id
 _symmetry_equiv_pos_as_xyz
  1  'x, y, z'
loop_
 _atom_site_type_symbol
 _atom_site_label
 _atom_site_symmetry_multiplicity
 _atom_site_fract_x
 _atom_site_fract_y
 _atom_site_fract_z
 _atom_site_occupancy
  H  H0  1  0.12740200  0.09503487  0.43364384  1
  H  H1  1  0.87259800  0.90496513  0.56635616  1
  H  H2  1  0.11262975  0.10602848  0.83852136  1
  H  H3  1  0.88737025  0.89397152  0.16147864  1
  H  H4  1  0.30085246  0.77851969  0.88926557  1
  H  H5  1  0.69914754  0.22148031  0.11073443  1
  H  H6  1  0.16411085  0.36319484  0.53041088  1
  H  H7  1  0.83588915  0.63680516  0.46958912  1
  H  H8  1  0.87297597  0.30536089  0.65178034  1
  H  H9  1  0.12702403  0.69463911  0.34821966  1
  H  H10  1  0.40072447  0.14764626  0.57144730  1
  H  H11  1  0.59927553  0.85235374  0.42855270  1
  H  H12  1  0.38966643  0.81662374  0.21480971  1
  H  H13  1  0.61033357  0.18337626  0.78519029  1
  H  H14  1  0.30795981  0.14180388  0.98777413  1
  H  H15  1  0.69204019  0.85819612  0.01222587  1
  H  H16  1  0.90362677  0.21680939  0.26794301  1
  H  H17  1  0.09637323  0.78319061  0.73205699  1
  H  H18  1  0.60601640  0.59973328  0.96313393  1
  H  H19  1  0.39398360  0.40026672  0.03686607  1
  H  H20  1  0.35914869  0.55532574  0.65078050  1
  H  H21  1  0.64085131  0.44467426  0.34921950  1
  He  He22  1  0.11773308  0.96051149  0.17559196  1
  He  He23  1  0.88226692  0.03948851  0.82440804  1
  He  He24  1  0.32234884  0.92136549  0.53894267  1
  He  He25  1  0.67765116  0.07863451  0.46105733  1
  He  He26  1  0.61937829  0.46792787  0.68956811  1
  He  He27  1  0.38062171  0.53207213  0.31043189  1
  Li  Li28  1  0.79857333  0.35708660  0.12780762  1
  Li  Li29  1  0.20142667  0.64291340  0.87219238  1
  Li  Li30  1  0.77389973  0.74812169  0.24113175  1
  Li  Li31  1  0.22610027  0.25187831  0.75886825  1
  Li  Li32  1  0.04426366  0.30137678  0.42059363  1
  Li  Li33  1  0.95573634  0.69862322  0.57940637  1
  Li  Li34  1  0.46006506  0.19205156  0.03950135  1
  Li  Li35  1  0.53993494  0.80794844  0.96049865  1
