# generated using pymatgen
data_HHe
_symmetry_space_group_name_H-M   'P 1'
_cell_length_a   4.11807268
_cell_length_b   6.08949619
_cell_length_c   8.45794360
_cell_angle_alpha   90.00000000
_cell_angle_beta   90.00000000
_cell_angle_gamma   90.00000000
_symmetry_Int_Tables_number   1
_chemical_formula_structural   HHe
_chemical_formula_sum   'H4 He4'
_cell_volume   212.09974885
_cell_formula_units_Z   4
loop_
 _symmetry_equiv_pos_site_id
 _symmetry_equiv_pos_as_xyz
  1  'x, y, z'
loop_
 _atom_site_type_symbol
 _atom_site_label
 _atom_site_symmetry_multiplicity
 _atom_site_fract_x
 _atom_site_fract_y
 _atom_site_fract_z
 _atom_site_occupancy
  H  H0  1  0.75000000  0.88413779  0.18166763  1
  H  H1  1  0.25000000  0.38413779  0.31833237  1
  H  H2  1  0.25000000  0.11586221  0.81833237  1
  H  H3  1  0.75000000  0.61586221  0.68166763  1
  He  He4  1  0.75000000  0.36504368  0.03693935  1
  He  He5  1  0.25000000  0.86504368  0.46306065  1
  He  He6  1  0.25000000  0.63495632  0.96306065  1
  He  He7  1  0.75000000  0.13495632  0.53693935  1
