# generated using pymatgen
data_HHe2Li2BeB3
_symmetry_space_group_name_H-M   'P 1'
_cell_length_a   7.83436977
_cell_length_b   7.83436977
_cell_length_c   7.63592288
_cell_angle_alpha   71.04037828
_cell_angle_beta   71.04037828
_cell_angle_gamma   68.02977240
_symmetry_Int_Tables_number   1
_chemical_formula_structural   HHe2Li2BeB3
_chemical_formula_sum   'H4 He8 Li8 Be4 B12'
_cell_volume   399.85623528
_cell_formula_units_Z   4
loop_
 _symmetry_equiv_pos_site_id
 _symmetry_equiv_pos_as_xyz
  1  'x, y, z'
loop_
 _atom_site_type_symbol
 _atom_site_label
 _atom_site_symmetry_multiplicity
 _atom_site_fract_x
 _atom_site_fract_y
 _atom_site_fract_z
 _atom_site_occupancy
  H  H0  1  0.30653976  0.12494667  0.52152987  1
  H  H1  1  0.87505333  0.69346024  0.47847013  1
  H  H2  1  0.60601598  0.93743581  0.98632343  1
  H  H3  1  0.06256419  0.39398402  0.01367657  1
  He  He4  1  0.64103080  0.99136304  0.30013290  1
  He  He5  1  0.00863696  0.35896920  0.69986710  1
  He  He6  1  0.56877713  0.86330968  0.69581756  1
  He  He7  1  0.13669032  0.43122287  0.30418244  1
  He  He8  1  0.29336849  0.08913596  0.19770372  1
  He  He9  1  0.91086404  0.70663151  0.80229628  1
  He  He10  1  0.35166489  0.20438932  0.80412819  1
  He  He11  1  0.79561068  0.64833511  0.19587181  1
  Li  Li12  1  0.22797388  0.91160112  0.25214386  1
  Li  Li13  1  0.08839888  0.77202612  0.74785614  1
  Li  Li14  1  0.48039834  0.70116849  0.80432739  1
  Li  Li15  1  0.29883151  0.51960166  0.19567261  1
  Li  Li16  1  0.44046719  0.36519661  0.69020494  1
  Li  Li17  1  0.63480339  0.55953281  0.30979506  1
  Li  Li18  1  0.72098963  0.15762715  0.25423871  1
  Li  Li19  1  0.84237285  0.27901037  0.74576129  1
  Be  Be20  1  0.59685046  0.40314954  -0.00000000  1
  Be  Be21  1  0.73736811  0.26263189  0.50000000  1
  Be  Be22  1  0.18894003  0.81105997  0.00000000  1
  Be  Be23  1  0.33788758  0.66211242  0.50000000  1
  B  B24  1  0.48158456  0.98840551  0.50847140  1
  B  B25  1  0.01159449  0.51841544  0.49152860  1
  B  B26  1  0.52938426  0.02336326  0.13770114  1
  B  B27  1  0.97663674  0.47061574  0.86229886  1
  B  B28  1  0.22303295  0.19969175  0.36853961  1
  B  B29  1  0.80030825  0.77696705  0.63146039  1
  B  B30  1  0.21844621  0.23670359  0.01185730  1
  B  B31  1  0.76329641  0.78155379  0.98814270  1
  B  B32  1  0.21711138  0.19333087  0.68396135  1
  B  B33  1  0.80666913  0.78288862  0.31603865  1
  B  B34  1  0.51982101  0.00408380  0.83552093  1
  B  B35  1  0.99591620  0.48017899  0.16447907  1
