# generated using pymatgen
data_H3He
_symmetry_space_group_name_H-M   'P 1'
_cell_length_a   5.39139796
_cell_length_b   5.39139796
_cell_length_c   5.39139796
_cell_angle_alpha   90.00000000
_cell_angle_beta   90.00000000
_cell_angle_gamma   90.00000000
_symmetry_Int_Tables_number   1
_chemical_formula_structural   H3He
_chemical_formula_sum   'H9 He3'
_cell_volume   156.71269186
_cell_formula_units_Z   3
loop_
 _symmetry_equiv_pos_site_id
 _symmetry_equiv_pos_as_xyz
  1  'x, y, z'
loop_
 _atom_site_type_symbol
 _atom_site_label
 _atom_site_symmetry_multiplicity
 _atom_site_fract_x
 _atom_site_fract_y
 _atom_site_fract_z
 _atom_site_occupancy
  H  H0  1  0.50000000  0.50000000  0.50000000  1
  H  H1  1  0.24261528  0.24261528  0.24261528  1
  H  H2  1  0.75738472  0.75738472  0.24261528  1
  H  H3  1  0.75738472  0.24261528  0.75738472  1
  H  H4  1  0.24261528  0.75738472  0.75738472  1
  H  H5  1  0.24261528  0.24261528  0.75738472  1
  H  H6  1  0.75738472  0.75738472  0.75738472  1
  H  H7  1  0.24261528  0.75738472  0.24261528  1
  H  H8  1  0.75738472  0.24261528  0.24261528  1
  He  He9  1  0.50000000  0.50000000  0.00000000  1
  He  He10  1  0.00000000  0.50000000  0.50000000  1
  He  He11  1  0.50000000  0.00000000  0.50000000  1
