# generated using pymatgen
data_HHe8Li5
_symmetry_space_group_name_H-M   'P 1'
_cell_length_a   9.89429565
_cell_length_b   9.89429565
_cell_length_c   9.19753296
_cell_angle_alpha   75.52920925
_cell_angle_beta   75.52920925
_cell_angle_gamma   21.34541732
_symmetry_Int_Tables_number   1
_chemical_formula_structural   HHe8Li5
_chemical_formula_sum   'H1 He8 Li5'
_cell_volume   316.96745918
_cell_formula_units_Z   1
loop_
 _symmetry_equiv_pos_site_id
 _symmetry_equiv_pos_as_xyz
  1  'x, y, z'
loop_
 _atom_site_type_symbol
 _atom_site_label
 _atom_site_symmetry_multiplicity
 _atom_site_fract_x
 _atom_site_fract_y
 _atom_site_fract_z
 _atom_site_occupancy
  H  H0  1  0.50000000  0.50000000  0.50000000  1
  He  He1  1  0.42521303  0.42521303  0.16385295  1
  He  He2  1  0.57478697  0.57478697  0.83614705  1
  He  He3  1  0.91681741  0.91681741  0.81806705  1
  He  He4  1  0.08318259  0.08318259  0.18193295  1
  He  He5  1  0.83262294  0.83262294  0.49650975  1
  He  He6  1  0.16737706  0.16737706  0.50349025  1
  He  He7  1  0.76155792  0.76155792  0.15418018  1
  He  He8  1  0.23844208  0.23844208  0.84581982  1
  Li  Li9  1  0.00000000  0.00000000  0.00000000  1
  Li  Li10  1  0.65658464  0.65658464  0.01808647  1
  Li  Li11  1  0.34341536  0.34341536  0.98191353  1
  Li  Li12  1  0.70400317  0.70400317  0.66252987  1
  Li  Li13  1  0.29599683  0.29599683  0.33747013  1
