# generated using pymatgen
data_H2HeLi4
_symmetry_space_group_name_H-M   'P 1'
_cell_length_a   8.53168879
_cell_length_b   8.53168879
_cell_length_c   6.02348455
_cell_angle_alpha   90.00000000
_cell_angle_beta   90.00000000
_cell_angle_gamma   90.00000000
_symmetry_Int_Tables_number   1
_chemical_formula_structural   H2HeLi4
_chemical_formula_sum   'H8 He4 Li16'
_cell_volume   438.44771463
_cell_formula_units_Z   4
loop_
 _symmetry_equiv_pos_site_id
 _symmetry_equiv_pos_as_xyz
  1  'x, y, z'
loop_
 _atom_site_type_symbol
 _atom_site_label
 _atom_site_symmetry_multiplicity
 _atom_site_fract_x
 _atom_site_fract_y
 _atom_site_fract_z
 _atom_site_occupancy
  H  H0  1  0.17062509  0.17062509  0.25000000  1
  H  H1  1  0.82937491  0.82937491  0.25000000  1
  H  H2  1  0.32937491  0.67062509  0.25000000  1
  H  H3  1  0.67062509  0.32937491  0.25000000  1
  H  H4  1  0.32937491  0.32937491  0.75000000  1
  H  H5  1  0.67062509  0.67062509  0.75000000  1
  H  H6  1  0.17062509  0.82937491  0.75000000  1
  H  H7  1  0.82937491  0.17062509  0.75000000  1
  He  He8  1  0.00000000  0.50000000  0.07549228  1
  He  He9  1  0.50000000  0.00000000  0.42450772  1
  He  He10  1  0.50000000  0.00000000  0.92450772  1
  He  He11  1  0.00000000  0.50000000  0.57549228  1
  Li  Li12  1  0.29437632  0.10165311  0.91127028  1
  Li  Li13  1  0.70562368  0.89834689  0.91127028  1
  Li  Li14  1  0.39834689  0.79437632  0.91127028  1
  Li  Li15  1  0.60165311  0.20562368  0.91127028  1
  Li  Li16  1  0.20562368  0.60165311  0.58872972  1
  Li  Li17  1  0.79437632  0.39834689  0.58872972  1
  Li  Li18  1  0.10165311  0.29437632  0.58872972  1
  Li  Li19  1  0.89834689  0.70562368  0.58872972  1
  Li  Li20  1  0.20562368  0.39834689  0.08872972  1
  Li  Li21  1  0.79437632  0.60165311  0.08872972  1
  Li  Li22  1  0.10165311  0.70562368  0.08872972  1
  Li  Li23  1  0.89834689  0.29437632  0.08872972  1
  Li  Li24  1  0.29437632  0.89834689  0.41127028  1
  Li  Li25  1  0.70562368  0.10165311  0.41127028  1
  Li  Li26  1  0.39834689  0.20562368  0.41127028  1
  Li  Li27  1  0.60165311  0.79437632  0.41127028  1
