# generated using pymatgen
data_H3He8Li2
_symmetry_space_group_name_H-M   'P 1'
_cell_length_a   7.84230394
_cell_length_b   7.84230394
_cell_length_c   7.84230394
_cell_angle_alpha   42.52724974
_cell_angle_beta   42.52724974
_cell_angle_gamma   42.52724974
_symmetry_Int_Tables_number   1
_chemical_formula_structural   H3He8Li2
_chemical_formula_sum   'H3 He8 Li2'
_cell_volume   199.54994670
_cell_formula_units_Z   1
loop_
 _symmetry_equiv_pos_site_id
 _symmetry_equiv_pos_as_xyz
  1  'x, y, z'
loop_
 _atom_site_type_symbol
 _atom_site_label
 _atom_site_symmetry_multiplicity
 _atom_site_fract_x
 _atom_site_fract_y
 _atom_site_fract_z
 _atom_site_occupancy
  H  H0  1  -0.00000000  -0.00000000  0.00000000  1
  H  H1  1  0.78988342  0.78988342  0.78988342  1
  H  H2  1  0.21011658  0.21011658  0.21011658  1
  He  He3  1  0.66516092  0.66516092  0.66516092  1
  He  He4  1  0.33483908  0.33483908  0.33483908  1
  He  He5  1  0.71735519  0.26856141  0.71735519  1
  He  He6  1  0.26856141  0.71735519  0.71735519  1
  He  He7  1  0.71735519  0.71735519  0.26856141  1
  He  He8  1  0.28264481  0.73143859  0.28264481  1
  He  He9  1  0.28264481  0.28264481  0.73143859  1
  He  He10  1  0.73143859  0.28264481  0.28264481  1
  Li  Li11  1  0.59264889  0.59264889  0.59264889  1
  Li  Li12  1  0.40735111  0.40735111  0.40735111  1
