# generated using pymatgen
data_HHe6Li2(Be4B)2
_symmetry_space_group_name_H-M   'P 1'
_cell_length_a   6.95621477
_cell_length_b   6.95621477
_cell_length_c   7.46237593
_cell_angle_alpha   66.88524777
_cell_angle_beta   66.88524777
_cell_angle_gamma   45.35164664
_symmetry_Int_Tables_number   1
_chemical_formula_structural   HHe6Li2(Be4B)2
_chemical_formula_sum   'H1 He6 Li2 Be8 B2'
_cell_volume   232.48475844
_cell_formula_units_Z   1
loop_
 _symmetry_equiv_pos_site_id
 _symmetry_equiv_pos_as_xyz
  1  'x, y, z'
loop_
 _atom_site_type_symbol
 _atom_site_label
 _atom_site_symmetry_multiplicity
 _atom_site_fract_x
 _atom_site_fract_y
 _atom_site_fract_z
 _atom_site_occupancy
  H  H0  1  0.50000000  0.50000000  0.50000000  1
  He  He1  1  0.73679713  0.73679713  0.88390049  1
  He  He2  1  0.26320287  0.26320287  0.11609951  1
  He  He3  1  0.32158592  0.62113967  0.84548146  1
  He  He4  1  0.37886033  0.67841408  0.15451854  1
  He  He5  1  0.67841408  0.37886033  0.15451854  1
  He  He6  1  0.62113967  0.32158592  0.84548146  1
  Li  Li7  1  0.83465966  0.83465966  0.28783418  1
  Li  Li8  1  0.16534034  0.16534034  0.71216582  1
  Be  Be9  1  0.92621024  0.92621024  0.86344005  1
  Be  Be10  1  0.07378976  0.07378976  0.13655995  1
  Be  Be11  1  0.51687042  0.51687042  0.78006982  1
  Be  Be12  1  0.48312958  0.48312958  0.21993018  1
  Be  Be13  1  0.63014779  0.10374352  0.61843432  1
  Be  Be14  1  0.89625648  0.36985221  0.38156568  1
  Be  Be15  1  0.36985221  0.89625648  0.38156568  1
  Be  Be16  1  0.10374352  0.63014779  0.61843432  1
  B  B17  1  0.85411919  0.85411919  0.74255593  1
  B  B18  1  0.14588081  0.14588081  0.25744407  1
