# generated using pymatgen
data_HHe
_symmetry_space_group_name_H-M   'P 1'
_cell_length_a   4.12337654
_cell_length_b   5.25028175
_cell_length_c   25.26855791
_cell_angle_alpha   90.00000000
_cell_angle_beta   90.00000000
_cell_angle_gamma   90.00000000
_symmetry_Int_Tables_number   1
_chemical_formula_structural   HHe
_chemical_formula_sum   'H16 He16'
_cell_volume   547.03619604
_cell_formula_units_Z   16
loop_
 _symmetry_equiv_pos_site_id
 _symmetry_equiv_pos_as_xyz
  1  'x, y, z'
loop_
 _atom_site_type_symbol
 _atom_site_label
 _atom_site_symmetry_multiplicity
 _atom_site_fract_x
 _atom_site_fract_y
 _atom_site_fract_z
 _atom_site_occupancy
  H  H0  1  0.00000000  -0.00000000  0.00000000  1
  H  H1  1  0.00000000  0.50000000  0.50000000  1
  H  H2  1  0.00000000  0.50000000  0.00000000  1
  H  H3  1  0.00000000  -0.00000000  0.50000000  1
  H  H4  1  0.00000000  0.78142226  0.10586906  1
  H  H5  1  0.00000000  0.21857774  0.89413094  1
  H  H6  1  0.00000000  0.28142226  0.39413094  1
  H  H7  1  0.00000000  0.71857774  0.60586906  1
  H  H8  1  0.50000000  0.78405762  0.25521035  1
  H  H9  1  0.50000000  0.21594238  0.74478965  1
  H  H10  1  0.50000000  0.28405762  0.24478965  1
  H  H11  1  0.50000000  0.71594238  0.75521035  1
  H  H12  1  0.50000000  0.50257869  0.14258817  1
  H  H13  1  0.50000000  0.49742131  0.85741183  1
  H  H14  1  0.50000000  0.00257869  0.35741183  1
  H  H15  1  0.50000000  0.99742131  0.64258817  1
  He  He16  1  0.00000000  0.27694736  0.08941637  1
  He  He17  1  0.00000000  0.72305264  0.91058363  1
  He  He18  1  0.00000000  0.77694736  0.41058363  1
  He  He19  1  0.00000000  0.22305264  0.58941637  1
  He  He20  1  0.00000000  0.54815696  0.21039814  1
  He  He21  1  0.00000000  0.45184304  0.78960186  1
  He  He22  1  0.00000000  0.04815696  0.28960186  1
  He  He23  1  0.00000000  0.95184304  0.71039814  1
  He  He24  1  0.50000000  0.99961322  0.16138674  1
  He  He25  1  0.50000000  0.00038678  0.83861326  1
  He  He26  1  0.50000000  0.49961322  0.33861326  1
  He  He27  1  0.50000000  0.50038678  0.66138674  1
  He  He28  1  0.50000000  0.74561365  0.03924386  1
  He  He29  1  0.50000000  0.25438635  0.96075614  1
  He  He30  1  0.50000000  0.24561365  0.46075614  1
  He  He31  1  0.50000000  0.75438635  0.53924386  1
