# generated using pymatgen
data_H6He8Li
_symmetry_space_group_name_H-M   'P 1'
_cell_length_a   6.60474081
_cell_length_b   6.60474081
_cell_length_c   6.60474081
_cell_angle_alpha   89.76970479
_cell_angle_beta   89.76970479
_cell_angle_gamma   89.76970479
_symmetry_Int_Tables_number   1
_chemical_formula_structural   H6He8Li
_chemical_formula_sum   'H6 He8 Li1'
_cell_volume   288.10901055
_cell_formula_units_Z   1
loop_
 _symmetry_equiv_pos_site_id
 _symmetry_equiv_pos_as_xyz
  1  'x, y, z'
loop_
 _atom_site_type_symbol
 _atom_site_label
 _atom_site_symmetry_multiplicity
 _atom_site_fract_x
 _atom_site_fract_y
 _atom_site_fract_z
 _atom_site_occupancy
  H  H0  1  0.44089930  0.77161680  0.58003817  1
  H  H1  1  0.77161680  0.58003817  0.44089930  1
  H  H2  1  0.58003817  0.44089930  0.77161680  1
  H  H3  1  0.55910070  0.22838320  0.41996183  1
  H  H4  1  0.22838320  0.41996183  0.55910070  1
  H  H5  1  0.41996183  0.55910070  0.22838320  1
  He  He6  1  0.76017909  0.76017909  0.76017909  1
  He  He7  1  0.23982091  0.23982091  0.23982091  1
  He  He8  1  0.87259101  0.25725546  0.62625293  1
  He  He9  1  0.25725546  0.62625293  0.87259101  1
  He  He10  1  0.62625293  0.87259101  0.25725546  1
  He  He11  1  0.12740899  0.74274454  0.37374707  1
  He  He12  1  0.74274454  0.37374707  0.12740899  1
  He  He13  1  0.37374707  0.12740899  0.74274454  1
  Li  Li14  1  0.00000000  0.00000000  0.00000000  1
