# generated using pymatgen
data_H2He3Li
_symmetry_space_group_name_H-M   'P 1'
_cell_length_a   10.09242321
_cell_length_b   4.97554193
_cell_length_c   6.95654286
_cell_angle_alpha   89.62801897
_cell_angle_beta   90.00000000
_cell_angle_gamma   90.00000000
_symmetry_Int_Tables_number   1
_chemical_formula_structural   H2He3Li
_chemical_formula_sum   'H8 He12 Li4'
_cell_volume   349.31735007
_cell_formula_units_Z   4
loop_
 _symmetry_equiv_pos_site_id
 _symmetry_equiv_pos_as_xyz
  1  'x, y, z'
loop_
 _atom_site_type_symbol
 _atom_site_label
 _atom_site_symmetry_multiplicity
 _atom_site_fract_x
 _atom_site_fract_y
 _atom_site_fract_z
 _atom_site_occupancy
  H  H0  1  0.74723021  0.75783434  0.41257339  1
  H  H1  1  0.24723021  0.24216566  0.08742661  1
  H  H2  1  0.25276979  0.24216566  0.58742661  1
  H  H3  1  0.75276979  0.75783434  0.91257339  1
  H  H4  1  0.91301842  0.26074881  0.65150008  1
  H  H5  1  0.41301842  0.73925119  0.84849992  1
  H  H6  1  0.08698158  0.73925119  0.34849992  1
  H  H7  1  0.58698158  0.26074881  0.15150008  1
  He  He8  1  0.05854662  0.24877126  0.32737731  1
  He  He9  1  0.55854662  0.75122874  0.17262269  1
  He  He10  1  0.94145338  0.75122874  0.67262269  1
  He  He11  1  0.44145338  0.24877126  0.82737731  1
  He  He12  1  0.79032971  0.28483190  0.35383399  1
  He  He13  1  0.29032971  0.71516810  0.14616601  1
  He  He14  1  0.20967029  0.71516810  0.64616601  1
  He  He15  1  0.70967029  0.28483190  0.85383399  1
  He  He16  1  0.89960074  0.87702100  0.16497439  1
  He  He17  1  0.39960074  0.12297900  0.33502561  1
  He  He18  1  0.10039926  0.12297900  0.83502561  1
  He  He19  1  0.60039926  0.87702100  0.66497439  1
  Li  Li20  1  0.91567996  0.22155775  0.18828280  1
  Li  Li21  1  0.41567996  0.77844225  0.31171720  1
  Li  Li22  1  0.08432004  0.77844225  0.81171720  1
  Li  Li23  1  0.58432004  0.22155775  0.68828280  1
