# generated using pymatgen
data_H7He3Li
_symmetry_space_group_name_H-M   'P 1'
_cell_length_a   4.80605035
_cell_length_b   4.80605035
_cell_length_c   10.48548493
_cell_angle_alpha   90.00000000
_cell_angle_beta   90.00000000
_cell_angle_gamma   120.00445521
_symmetry_Int_Tables_number   1
_chemical_formula_structural   H7He3Li
_chemical_formula_sum   'H14 He6 Li2'
_cell_volume   209.73759577
_cell_formula_units_Z   2
loop_
 _symmetry_equiv_pos_site_id
 _symmetry_equiv_pos_as_xyz
  1  'x, y, z'
loop_
 _atom_site_type_symbol
 _atom_site_label
 _atom_site_symmetry_multiplicity
 _atom_site_fract_x
 _atom_site_fract_y
 _atom_site_fract_z
 _atom_site_occupancy
  H  H0  1  0.17049549  0.34098732  0.59940205  1
  H  H1  1  0.65901268  0.82950451  0.59940205  1
  H  H2  1  0.17048906  0.82951094  0.59940258  1
  H  H3  1  0.82950451  0.65901268  0.09940205  1
  H  H4  1  0.34098732  0.17049549  0.09940205  1
  H  H5  1  0.82951094  0.17048906  0.09940258  1
  H  H6  1  0.34098732  0.17049549  0.40059795  1
  H  H7  1  0.82950451  0.65901268  0.40059795  1
  H  H8  1  0.82951094  0.17048906  0.40059742  1
  H  H9  1  0.65901268  0.82950451  0.90059795  1
  H  H10  1  0.17049549  0.34098732  0.90059795  1
  H  H11  1  0.17048906  0.82951094  0.90059742  1
  H  H12  1  0.33330545  0.66669455  0.25000000  1
  H  H13  1  0.66669455  0.33330545  0.75000000  1
  He  He14  1  0.33331927  0.66668073  0.06785810  1
  He  He15  1  0.66668073  0.33331927  0.56785810  1
  He  He16  1  0.66668073  0.33331927  0.93214190  1
  He  He17  1  0.33331927  0.66668073  0.43214190  1
  He  He18  1  0.00000792  0.99999208  0.25000000  1
  He  He19  1  0.99999208  0.00000792  0.75000000  1
  Li  Li20  1  0.00000000  0.00000000  0.00000000  1
  Li  Li21  1  0.00000000  0.00000000  0.50000000  1
