# generated using pymatgen
data_HHe(Li3Be)2
_symmetry_space_group_name_H-M   'P 1'
_cell_length_a   5.57983402
_cell_length_b   5.57983402
_cell_length_c   5.57983402
_cell_angle_alpha   120.01262528
_cell_angle_beta   120.01262528
_cell_angle_gamma   89.97813376
_symmetry_Int_Tables_number   1
_chemical_formula_structural   HHe(Li3Be)2
_chemical_formula_sum   'H1 He1 Li6 Be2'
_cell_volume   122.81910381
_cell_formula_units_Z   1
loop_
 _symmetry_equiv_pos_site_id
 _symmetry_equiv_pos_as_xyz
  1  'x, y, z'
loop_
 _atom_site_type_symbol
 _atom_site_label
 _atom_site_symmetry_multiplicity
 _atom_site_fract_x
 _atom_site_fract_y
 _atom_site_fract_z
 _atom_site_occupancy
  H  H0  1  0.00000000  0.00000000  -0.00000000  1
  He  He1  1  0.50000000  0.50000000  -0.00000000  1
  Li  Li2  1  0.25407369  0.25407369  0.00000000  1
  Li  Li3  1  0.74592631  0.74592631  -0.00000000  1
  Li  Li4  1  0.74609533  0.25390467  0.00000000  1
  Li  Li5  1  0.25390467  0.74609533  0.00000000  1
  Li  Li6  1  0.25390467  0.25390467  0.50780935  1
  Li  Li7  1  0.74609533  0.74609533  0.49219065  1
  Be  Be8  1  0.25000000  0.75000000  0.50000000  1
  Be  Be9  1  0.75000000  0.25000000  0.50000000  1
