# generated using pymatgen
data_H4He5Li17
_symmetry_space_group_name_H-M   'P 1'
_cell_length_a   6.90574371
_cell_length_b   9.73894215
_cell_length_c   11.12416325
_cell_angle_alpha   106.91163218
_cell_angle_beta   87.89991140
_cell_angle_gamma   111.82496983
_symmetry_Int_Tables_number   1
_chemical_formula_structural   H4He5Li17
_chemical_formula_sum   'H8 He10 Li34'
_cell_volume   662.33509253
_cell_formula_units_Z   2
loop_
 _symmetry_equiv_pos_site_id
 _symmetry_equiv_pos_as_xyz
  1  'x, y, z'
loop_
 _atom_site_type_symbol
 _atom_site_label
 _atom_site_symmetry_multiplicity
 _atom_site_fract_x
 _atom_site_fract_y
 _atom_site_fract_z
 _atom_site_occupancy
  H  H0  1  0.52923945  0.27477895  0.05326323  1
  H  H1  1  0.47076055  0.72522105  0.94673677  1
  H  H2  1  0.69695493  0.90595991  0.31104858  1
  H  H3  1  0.30304507  0.09404009  0.68895142  1
  H  H4  1  0.29763606  0.22325629  0.44184458  1
  H  H5  1  0.70236394  0.77674371  0.55815542  1
  H  H6  1  0.75561594  0.44735403  0.36126558  1
  H  H7  1  0.24438406  0.55264597  0.63873442  1
  He  He8  1  0.98271361  0.20776604  0.20002716  1
  He  He9  1  0.01728639  0.79223396  0.79997284  1
  He  He10  1  0.23979184  0.96013197  0.14764238  1
  He  He11  1  0.76020816  0.03986803  0.85235762  1
  He  He12  1  0.34762051  0.55843485  0.33247465  1
  He  He13  1  0.65237949  0.44156515  0.66752535  1
  He  He14  1  0.12595335  0.80902179  0.38673891  1
  He  He15  1  0.87404665  0.19097821  0.61326109  1
  He  He16  1  0.86340651  0.62115799  0.02505653  1
  He  He17  1  0.13659349  0.37884201  0.97494347  1
  Li  Li18  1  0.91477585  0.01306898  0.21014089  1
  Li  Li19  1  0.08522415  0.98693102  0.78985911  1
  Li  Li20  1  0.87692943  0.82765016  0.41397234  1
  Li  Li21  1  0.12307057  0.17234984  0.58602766  1
  Li  Li22  1  0.29228966  0.15092596  0.13079785  1
  Li  Li23  1  0.70771034  0.84907404  0.86920215  1
  Li  Li24  1  0.94771340  0.16353974  0.01147082  1
  Li  Li25  1  0.05228660  0.83646026  0.98852918  1
  Li  Li26  1  0.27053822  0.00563161  0.32578769  1
  Li  Li27  1  0.72946178  0.99436839  0.67421231  1
  Li  Li28  1  0.73613368  0.09571973  0.46418451  1
  Li  Li29  1  0.26386632  0.90428027  0.53581549  1
  Li  Li30  1  0.75688647  0.24864012  0.23671541  1
  Li  Li31  1  0.24311353  0.75135988  0.76328459  1
  Li  Li32  1  0.45649689  0.91540046  0.09640382  1
  Li  Li33  1  0.54350311  0.08459954  0.90359618  1
  Li  Li34  1  0.16491050  0.32874873  0.34646322  1
  Li  Li35  1  0.83508950  0.67125127  0.65353678  1
  Li  Li36  1  0.63842806  0.65978965  0.06212339  1
  Li  Li37  1  0.36157194  0.34021035  0.93787661  1
  Li  Li38  1  0.16131486  0.41933912  0.15658784  1
  Li  Li39  1  0.83868514  0.58066088  0.84341216  1
  Li  Li40  1  0.80500497  0.42905577  0.03648943  1
  Li  Li41  1  0.19499503  0.57094423  0.96351057  1
  Li  Li42  1  0.40947009  0.75047780  0.30704582  1
  Li  Li43  1  0.59052991  0.24952220  0.69295418  1
  Li  Li44  1  0.55799409  0.50395649  0.27249890  1
  Li  Li45  1  0.44200591  0.49604351  0.72750110  1
  Li  Li46  1  0.04798860  0.59862564  0.37105307  1
  Li  Li47  1  0.95201140  0.40137436  0.62894693  1
  Li  Li48  1  0.04592899  0.74855430  0.17620313  1
  Li  Li49  1  0.95407101  0.25144570  0.82379687  1
  Li  Li50  1  0.41059213  0.61806904  0.50215044  1
  Li  Li51  1  0.58940787  0.38193096  0.49784956  1
