# generated using pymatgen
data_HHeLi4
_symmetry_space_group_name_H-M   'P 1'
_cell_length_a   19.02394538
_cell_length_b   7.54500399
_cell_length_c   8.64705258
_cell_angle_alpha   72.25927246
_cell_angle_beta   90.00000000
_cell_angle_gamma   90.00000000
_symmetry_Int_Tables_number   1
_chemical_formula_structural   HHeLi4
_chemical_formula_sum   'H4 He4 Li16'
_cell_volume   1182.13786170
_cell_formula_units_Z   4
loop_
 _symmetry_equiv_pos_site_id
 _symmetry_equiv_pos_as_xyz
  1  'x, y, z'
loop_
 _atom_site_type_symbol
 _atom_site_label
 _atom_site_symmetry_multiplicity
 _atom_site_fract_x
 _atom_site_fract_y
 _atom_site_fract_z
 _atom_site_occupancy
  H  H0  1  0.63302662  0.81864743  0.29638079  1
  H  H1  1  0.13302662  0.18135257  0.20361921  1
  H  H2  1  0.36697338  0.18135257  0.70361921  1
  H  H3  1  0.86697338  0.81864743  0.79638079  1
  He  He4  1  0.37261004  0.81068423  0.29461838  1
  He  He5  1  0.87261004  0.18931577  0.20538162  1
  He  He6  1  0.62738996  0.18931577  0.70538162  1
  He  He7  1  0.12738996  0.81068423  0.79461838  1
  Li  Li8  1  0.34780435  0.16662991  0.20405754  1
  Li  Li9  1  0.84780435  0.83337009  0.29594246  1
  Li  Li10  1  0.65219565  0.83337009  0.79594246  1
  Li  Li11  1  0.15219565  0.16662991  0.70405754  1
  Li  Li12  1  0.44410548  0.72747934  0.56268645  1
  Li  Li13  1  0.94410548  0.27252066  0.93731355  1
  Li  Li14  1  0.55589452  0.27252066  0.43731355  1
  Li  Li15  1  0.05589452  0.72747934  0.06268645  1
  Li  Li16  1  0.44560144  0.72826968  0.07534925  1
  Li  Li17  1  0.94560144  0.27173032  0.42465075  1
  Li  Li18  1  0.55439856  0.27173032  0.92465075  1
  Li  Li19  1  0.05439856  0.72826968  0.57534925  1
  Li  Li20  1  0.25469132  0.63731213  0.34664600  1
  Li  Li21  1  0.75469132  0.36268787  0.15335400  1
  Li  Li22  1  0.74530868  0.36268787  0.65335400  1
  Li  Li23  1  0.24530868  0.63731213  0.84664600  1
