# generated using pymatgen
data_H6HeLiBe
_symmetry_space_group_name_H-M   'P 1'
_cell_length_a   8.90895353
_cell_length_b   8.90495519
_cell_length_c   4.81318798
_cell_angle_alpha   89.93926460
_cell_angle_beta   90.00000000
_cell_angle_gamma   120.01485395
_symmetry_Int_Tables_number   1
_chemical_formula_structural   H6HeLiBe
_chemical_formula_sum   'H18 He3 Li3 Be3'
_cell_volume   330.64087196
_cell_formula_units_Z   3
loop_
 _symmetry_equiv_pos_site_id
 _symmetry_equiv_pos_as_xyz
  1  'x, y, z'
loop_
 _atom_site_type_symbol
 _atom_site_label
 _atom_site_symmetry_multiplicity
 _atom_site_fract_x
 _atom_site_fract_y
 _atom_site_fract_z
 _atom_site_occupancy
  H  H0  1  0.77540508  0.88782648  0.23479524  1
  H  H1  1  0.11212267  0.88782116  0.23487296  1
  H  H2  1  0.11183736  0.22401413  0.23415004  1
  H  H3  1  0.88757860  0.11217352  0.76520476  1
  H  H4  1  0.22430151  0.11217884  0.76512704  1
  H  H5  1  0.88782323  0.77598587  0.76584996  1
  H  H6  1  0.57787944  0.11043702  0.72948173  1
  H  H7  1  0.88994931  0.46771964  0.72994909  1
  H  H8  1  0.53290848  0.42215775  0.72988273  1
  H  H9  1  0.46744242  0.88956298  0.27051827  1
  H  H10  1  0.42222968  0.53228036  0.27005091  1
  H  H11  1  0.11075073  0.57784225  0.27011727  1
  H  H12  1  0.77644653  0.56043420  0.27475333  1
  H  H13  1  0.43962221  0.21603400  0.27420814  1
  H  H14  1  0.78384626  0.22373375  0.27439299  1
  H  H15  1  0.21601233  0.43956580  0.72524667  1
  H  H16  1  0.22358820  0.78396600  0.72579186  1
  H  H17  1  0.56011251  0.77626625  0.72560701  1
  He  He18  1  0.99973076  -0.00000000  0.00000000  1
  He  He19  1  0.66650105  0.33343300  0.49173431  1
  He  He20  1  0.33306805  0.66656700  0.50826569  1
  Li  Li21  1  0.00029973  0.35756844  0.00031182  1
  Li  Li22  1  0.64273129  0.64243156  0.99968818  1
  Li  Li23  1  0.35748749  0.00000000  -0.00000000  1
  Be  Be24  1  0.00028041  0.68799202  0.49994598  1
  Be  Be25  1  0.31228839  0.31200798  0.50005402  1
  Be  Be26  1  0.68775628  -0.00000000  0.50000000  1
