# generated using pymatgen
data_H3He4
_symmetry_space_group_name_H-M   'P 1'
_cell_length_a   5.96227857
_cell_length_b   5.96227857
_cell_length_c   5.96227857
_cell_angle_alpha   60.00000000
_cell_angle_beta   60.00000000
_cell_angle_gamma   60.00000000
_symmetry_Int_Tables_number   1
_chemical_formula_structural   H3He4
_chemical_formula_sum   'H6 He8'
_cell_volume   149.87244505
_cell_formula_units_Z   2
loop_
 _symmetry_equiv_pos_site_id
 _symmetry_equiv_pos_as_xyz
  1  'x, y, z'
loop_
 _atom_site_type_symbol
 _atom_site_label
 _atom_site_symmetry_multiplicity
 _atom_site_fract_x
 _atom_site_fract_y
 _atom_site_fract_z
 _atom_site_occupancy
  H  H0  1  0.87500000  0.87500000  0.37500000  1
  H  H1  1  0.12500000  0.12500000  0.62500000  1
  H  H2  1  0.50000000  0.50000000  0.50000000  1
  H  H3  1  0.50000000  0.50000000  0.00000000  1
  H  H4  1  0.50000000  0.00000000  0.00000000  1
  H  H5  1  0.00000000  0.50000000  0.00000000  1
  He  He6  1  0.73985151  0.73985151  0.78044547  1
  He  He7  1  0.73985151  0.73985151  0.23985151  1
  He  He8  1  0.73985151  0.28044547  0.23985151  1
  He  He9  1  0.28044547  0.73985151  0.23985151  1
  He  He10  1  0.26014849  0.26014849  0.76014849  1
  He  He11  1  0.26014849  0.26014849  0.21955453  1
  He  He12  1  0.26014849  0.71955453  0.76014849  1
  He  He13  1  0.71955453  0.26014849  0.76014849  1
