# generated using pymatgen
data_HHe3(LiBe2)3
_symmetry_space_group_name_H-M   'P 1'
_cell_length_a   8.77319229
_cell_length_b   6.78242745
_cell_length_c   9.91611422
_cell_angle_alpha   78.30795811
_cell_angle_beta   90.00000000
_cell_angle_gamma   90.00000000
_symmetry_Int_Tables_number   1
_chemical_formula_structural   HHe3(LiBe2)3
_chemical_formula_sum   'H4 He12 Li12 Be24'
_cell_volume   577.80106093
_cell_formula_units_Z   4
loop_
 _symmetry_equiv_pos_site_id
 _symmetry_equiv_pos_as_xyz
  1  'x, y, z'
loop_
 _atom_site_type_symbol
 _atom_site_label
 _atom_site_symmetry_multiplicity
 _atom_site_fract_x
 _atom_site_fract_y
 _atom_site_fract_z
 _atom_site_occupancy
  H  H0  1  0.58302968  0.05893893  0.33293561  1
  H  H1  1  0.08302968  0.94106107  0.16706439  1
  H  H2  1  0.41697032  0.94106107  0.66706439  1
  H  H3  1  0.91697032  0.05893893  0.83293561  1
  He  He4  1  0.66480080  0.30550228  0.11332818  1
  He  He5  1  0.16480080  0.69449772  0.38667182  1
  He  He6  1  0.33519920  0.69449772  0.88667182  1
  He  He7  1  0.83519920  0.30550228  0.61332818  1
  He  He8  1  0.47652413  0.31548999  0.13082520  1
  He  He9  1  0.97652413  0.68451001  0.36917480  1
  He  He10  1  0.52347587  0.68451001  0.86917480  1
  He  He11  1  0.02347587  0.31548999  0.63082520  1
  He  He12  1  0.58907901  0.42772610  0.22510586  1
  He  He13  1  0.08907901  0.57227390  0.27489414  1
  He  He14  1  0.41092099  0.57227390  0.77489414  1
  He  He15  1  0.91092099  0.42772610  0.72510586  1
  Li  Li16  1  0.35277484  0.33340819  0.49517728  1
  Li  Li17  1  0.85277484  0.66659181  0.00482272  1
  Li  Li18  1  0.64722516  0.66659181  0.50482272  1
  Li  Li19  1  0.14722516  0.33340819  0.99517728  1
  Li  Li20  1  0.90154551  0.12837770  0.34348298  1
  Li  Li21  1  0.40154551  0.87162230  0.15651702  1
  Li  Li22  1  0.09845449  0.87162230  0.65651702  1
  Li  Li23  1  0.59845449  0.12837770  0.84348298  1
  Li  Li24  1  0.57808754  0.30248305  0.18300927  1
  Li  Li25  1  0.07808754  0.69751695  0.31699073  1
  Li  Li26  1  0.42191246  0.69751695  0.81699073  1
  Li  Li27  1  0.92191246  0.30248305  0.68300927  1
  Be  Be28  1  0.43266825  0.16575365  0.50476428  1
  Be  Be29  1  0.93266825  0.83424635  0.99523572  1
  Be  Be30  1  0.56733175  0.83424635  0.49523572  1
  Be  Be31  1  0.06733175  0.16575365  0.00476428  1
  Be  Be32  1  0.37226114  0.46594921  0.39015130  1
  Be  Be33  1  0.87226114  0.53405079  0.10984870  1
  Be  Be34  1  0.62773886  0.53405079  0.60984870  1
  Be  Be35  1  0.12773886  0.46594921  0.89015130  1
  Be  Be36  1  0.26502380  0.34831995  0.59112055  1
  Be  Be37  1  0.76502380  0.65168005  0.90887945  1
  Be  Be38  1  0.73497620  0.65168005  0.40887945  1
  Be  Be39  1  0.23497620  0.34831995  0.09112055  1
  Be  Be40  1  0.88645173  0.04057816  0.24061728  1
  Be  Be41  1  0.38645173  0.95942184  0.25938272  1
  Be  Be42  1  0.11354827  0.95942184  0.75938272  1
  Be  Be43  1  0.61354827  0.04057816  0.74061728  1
  Be  Be44  1  0.77914609  0.15716859  0.40798043  1
  Be  Be45  1  0.27914609  0.84283141  0.09201957  1
  Be  Be46  1  0.22085391  0.84283141  0.59201957  1
  Be  Be47  1  0.72085391  0.15716859  0.90798043  1
  Be  Be48  1  0.02682454  0.18211481  0.37982075  1
  Be  Be49  1  0.52682454  0.81788519  0.12017925  1
  Be  Be50  1  0.97317546  0.81788519  0.62017925  1
  Be  Be51  1  0.47317546  0.18211481  0.87982075  1
