# generated using pymatgen
data_H3He3(Li4Be)2
_symmetry_space_group_name_H-M   'P 1'
_cell_length_a   12.34670728
_cell_length_b   12.34670728
_cell_length_c   14.50405648
_cell_angle_alpha   60.68936555
_cell_angle_beta   60.68936555
_cell_angle_gamma   26.33600392
_symmetry_Int_Tables_number   1
_chemical_formula_structural   H3He3(Li4Be)2
_chemical_formula_sum   'H6 He6 Li16 Be4'
_cell_volume   847.89829987
_cell_formula_units_Z   2
loop_
 _symmetry_equiv_pos_site_id
 _symmetry_equiv_pos_as_xyz
  1  'x, y, z'
loop_
 _atom_site_type_symbol
 _atom_site_label
 _atom_site_symmetry_multiplicity
 _atom_site_fract_x
 _atom_site_fract_y
 _atom_site_fract_z
 _atom_site_occupancy
  H  H0  1  0.27943437  0.72056563  0.25000000  1
  H  H1  1  0.72056563  0.27943437  0.75000000  1
  H  H2  1  0.90477663  0.34033701  0.21872161  1
  H  H3  1  0.65966299  0.09522337  0.28127839  1
  H  H4  1  0.09522337  0.65966299  0.78127839  1
  H  H5  1  0.34033701  0.90477663  0.71872161  1
  He  He6  1  0.73448391  0.65168061  0.40448127  1
  He  He7  1  0.34831939  0.26551609  0.09551873  1
  He  He8  1  0.26551609  0.34831939  0.59551873  1
  He  He9  1  0.65168061  0.73448391  0.90448127  1
  He  He10  1  -0.00000000  0.00000000  0.00000000  1
  He  He11  1  -0.00000000  0.00000000  0.50000000  1
  Li  Li12  1  0.95987115  0.85911424  0.37280085  1
  Li  Li13  1  0.14088576  0.04012885  0.12719915  1
  Li  Li14  1  0.04012885  0.14088576  0.62719915  1
  Li  Li15  1  0.85911424  0.95987115  0.87280085  1
  Li  Li16  1  0.47770301  0.44274038  0.16097592  1
  Li  Li17  1  0.55725962  0.52229699  0.33902408  1
  Li  Li18  1  0.52229699  0.55725962  0.83902408  1
  Li  Li19  1  0.44274038  0.47770301  0.66097592  1
  Li  Li20  1  0.87702184  0.81049038  0.18686546  1
  Li  Li21  1  0.18950962  0.12297816  0.31313454  1
  Li  Li22  1  0.12297816  0.18950962  0.81313454  1
  Li  Li23  1  0.81049038  0.87702184  0.68686546  1
  Li  Li24  1  0.73657415  0.68085223  0.11021154  1
  Li  Li25  1  0.31914777  0.26342585  0.38978846  1
  Li  Li26  1  0.26342585  0.31914777  0.88978846  1
  Li  Li27  1  0.68085223  0.73657415  0.61021154  1
  Be  Be28  1  0.15755464  0.59155619  0.27956262  1
  Be  Be29  1  0.40844381  0.84244536  0.22043738  1
  Be  Be30  1  0.84244536  0.40844381  0.72043738  1
  Be  Be31  1  0.59155619  0.15755464  0.77956262  1
