# generated using pymatgen
data_H2HeLi6
_symmetry_space_group_name_H-M   'P 1'
_cell_length_a   6.47944042
_cell_length_b   6.47944042
_cell_length_c   6.35266090
_cell_angle_alpha   60.64516881
_cell_angle_beta   60.64516881
_cell_angle_gamma   58.70966238
_symmetry_Int_Tables_number   1
_chemical_formula_structural   H2HeLi6
_chemical_formula_sum   'H2 He1 Li6'
_cell_volume   188.44706257
_cell_formula_units_Z   1
loop_
 _symmetry_equiv_pos_site_id
 _symmetry_equiv_pos_as_xyz
  1  'x, y, z'
loop_
 _atom_site_type_symbol
 _atom_site_label
 _atom_site_symmetry_multiplicity
 _atom_site_fract_x
 _atom_site_fract_y
 _atom_site_fract_z
 _atom_site_occupancy
  H  H0  1  0.25000000  0.25000000  0.25000000  1
  H  H1  1  0.75000000  0.75000000  0.75000000  1
  He  He2  1  0.00000000  -0.00000000  -0.00000000  1
  Li  Li3  1  0.20970807  0.20970807  0.79029193  1
  Li  Li4  1  0.79029193  0.79029193  0.20970807  1
  Li  Li5  1  0.79846947  0.20153053  0.20153053  1
  Li  Li6  1  0.20153053  0.79846947  0.79846947  1
  Li  Li7  1  0.20153053  0.79846947  0.20153053  1
  Li  Li8  1  0.79846947  0.20153053  0.79846947  1
