# generated using pymatgen
data_H2HeLi2
_symmetry_space_group_name_H-M   'P 1'
_cell_length_a   8.39008043
_cell_length_b   8.39008043
_cell_length_c   8.39008043
_cell_angle_alpha   107.78940589
_cell_angle_beta   107.78940589
_cell_angle_gamma   112.88989644
_symmetry_Int_Tables_number   1
_chemical_formula_structural   H2HeLi2
_chemical_formula_sum   'H8 He4 Li8'
_cell_volume   453.42751398
_cell_formula_units_Z   4
loop_
 _symmetry_equiv_pos_site_id
 _symmetry_equiv_pos_as_xyz
  1  'x, y, z'
loop_
 _atom_site_type_symbol
 _atom_site_label
 _atom_site_symmetry_multiplicity
 _atom_site_fract_x
 _atom_site_fract_y
 _atom_site_fract_z
 _atom_site_occupancy
  H  H0  1  0.36809627  0.11572223  0.16026535  1
  H  H1  1  0.95545688  0.20783093  0.83973465  1
  H  H2  1  0.88427777  0.04454312  0.25237404  1
  H  H3  1  0.79216907  0.63190373  0.74762596  1
  H  H4  1  0.88190373  0.54216907  0.24762596  1
  H  H5  1  0.29454312  0.63427777  0.75237404  1
  H  H6  1  0.36572223  0.11809627  0.66026535  1
  H  H7  1  0.45783093  0.70545688  0.33973465  1
  He  He8  1  0.34084959  0.87500000  0.96584959  1
  He  He9  1  0.90915041  0.37500000  0.03415041  1
  He  He10  1  0.12500000  0.09084959  0.46584959  1
  He  He11  1  0.62500000  0.65915041  0.53415041  1
  Li  Li12  1  0.38648187  0.25167282  0.27604636  1
  Li  Li13  1  0.97562646  0.11043551  0.72395364  1
  Li  Li14  1  0.74832718  0.02437354  0.13480905  1
  Li  Li15  1  0.88956449  0.61351813  0.86519095  1
  Li  Li16  1  0.86351813  0.63956449  0.36519095  1
  Li  Li17  1  0.27437354  0.49832718  0.63480905  1
  Li  Li18  1  0.50167282  0.13648187  0.77604636  1
  Li  Li19  1  0.36043551  0.72562646  0.22395364  1
