# generated using pymatgen
data_HHeLi2
_symmetry_space_group_name_H-M   'P 1'
_cell_length_a   8.72073875
_cell_length_b   8.72073875
_cell_length_c   8.72073875
_cell_angle_alpha   60.00000000
_cell_angle_beta   60.00000000
_cell_angle_gamma   60.00000000
_symmetry_Int_Tables_number   1
_chemical_formula_structural   HHeLi2
_chemical_formula_sum   'H4 He4 Li8'
_cell_volume   468.96975133
_cell_formula_units_Z   4
loop_
 _symmetry_equiv_pos_site_id
 _symmetry_equiv_pos_as_xyz
  1  'x, y, z'
loop_
 _atom_site_type_symbol
 _atom_site_label
 _atom_site_symmetry_multiplicity
 _atom_site_fract_x
 _atom_site_fract_y
 _atom_site_fract_z
 _atom_site_occupancy
  H  H0  1  0.00000000  0.00000000  0.00000000  1
  H  H1  1  0.50000000  0.50000000  0.00000000  1
  H  H2  1  0.50000000  0.00000000  0.50000000  1
  H  H3  1  0.50000000  0.00000000  0.00000000  1
  He  He4  1  0.50000000  0.50000000  0.50000000  1
  He  He5  1  0.00000000  0.00000000  0.50000000  1
  He  He6  1  0.00000000  0.50000000  0.00000000  1
  He  He7  1  0.00000000  0.50000000  0.50000000  1
  Li  Li8  1  0.25242242  0.75242242  0.24273273  1
  Li  Li9  1  0.74757758  0.24757758  0.75726727  1
  Li  Li10  1  0.74757758  0.24757758  0.24757758  1
  Li  Li11  1  0.25242242  0.75242242  0.75242242  1
  Li  Li12  1  0.74757758  0.75726727  0.24757758  1
  Li  Li13  1  0.25242242  0.24273273  0.75242242  1
  Li  Li14  1  0.74273273  0.75242242  0.75242242  1
  Li  Li15  1  0.25726727  0.24757758  0.24757758  1
