# generated using pymatgen
data_H2HeLi4
_symmetry_space_group_name_H-M   'P 1'
_cell_length_a   8.52781518
_cell_length_b   8.52781518
_cell_length_c   8.52781518
_cell_angle_alpha   96.08559445
_cell_angle_beta   96.08559445
_cell_angle_gamma   96.08559445
_symmetry_Int_Tables_number   1
_chemical_formula_structural   H2HeLi4
_chemical_formula_sum   'H12 He6 Li24'
_cell_volume   608.87668572
_cell_formula_units_Z   6
loop_
 _symmetry_equiv_pos_site_id
 _symmetry_equiv_pos_as_xyz
  1  'x, y, z'
loop_
 _atom_site_type_symbol
 _atom_site_label
 _atom_site_symmetry_multiplicity
 _atom_site_fract_x
 _atom_site_fract_y
 _atom_site_fract_z
 _atom_site_occupancy
  H  H0  1  0.65429769  0.73424604  0.87846858  1
  H  H1  1  0.87846858  0.65429769  0.73424604  1
  H  H2  1  0.73424604  0.87846858  0.65429769  1
  H  H3  1  0.37850453  0.23427330  0.15434618  1
  H  H4  1  0.23427330  0.15434618  0.37850453  1
  H  H5  1  0.15434618  0.37850453  0.23427330  1
  H  H6  1  0.62298050  0.40656312  0.45143684  1
  H  H7  1  0.45143684  0.62298050  0.40656312  1
  H  H8  1  0.40656312  0.45143684  0.62298050  1
  H  H9  1  0.95142607  0.90654340  0.12298807  1
  H  H10  1  0.90654340  0.12298807  0.95142607  1
  H  H11  1  0.12298807  0.95142607  0.90654340  1
  He  He12  1  0.75884793  0.47282908  0.12086624  1
  He  He13  1  0.12086624  0.75884793  0.47282908  1
  He  He14  1  0.47282908  0.12086624  0.75884793  1
  He  He15  1  0.62073022  0.97278849  0.25880274  1
  He  He16  1  0.97278849  0.25880274  0.62073022  1
  He  He17  1  0.25880274  0.62073022  0.97278849  1
  Li  Li18  1  0.56981298  0.71689392  0.99916541  1
  Li  Li19  1  0.99916541  0.56981298  0.71689392  1
  Li  Li20  1  0.71689392  0.99916541  0.56981298  1
  Li  Li21  1  0.49918043  0.21685636  0.06986438  1
  Li  Li22  1  0.21685636  0.06986438  0.49918043  1
  Li  Li23  1  0.06986438  0.49918043  0.21685636  1
  Li  Li24  1  0.77428046  0.63493481  0.85033991  1
  Li  Li25  1  0.85033991  0.77428046  0.63493481  1
  Li  Li26  1  0.63493481  0.85033991  0.77428046  1
  Li  Li27  1  0.35035573  0.13495940  0.27432324  1
  Li  Li28  1  0.13495940  0.27432324  0.35035573  1
  Li  Li29  1  0.27432324  0.35035573  0.13495940  1
  Li  Li30  1  0.73749872  0.32532511  0.40427886  1
  Li  Li31  1  0.40427886  0.73749872  0.32532511  1
  Li  Li32  1  0.32532511  0.40427886  0.73749872  1
  Li  Li33  1  0.90429012  0.82530661  0.23746944  1
  Li  Li34  1  0.82530661  0.23746944  0.90429012  1
  Li  Li35  1  0.23746944  0.90429012  0.82530661  1
  Li  Li36  1  0.57842256  0.53651514  0.37154086  1
  Li  Li37  1  0.37154086  0.57842256  0.53651514  1
  Li  Li38  1  0.53651514  0.37154086  0.57842256  1
  Li  Li39  1  0.87150766  0.03651348  0.07844539  1
  Li  Li40  1  0.03651348  0.07844539  0.87150766  1
  Li  Li41  1  0.07844539  0.87150766  0.03651348  1
