# generated using pymatgen
data_HHeLi4
_symmetry_space_group_name_H-M   'P 1'
_cell_length_a   5.11670293
_cell_length_b   5.11673087
_cell_length_c   11.41675713
_cell_angle_alpha   89.99974378
_cell_angle_beta   90.00030989
_cell_angle_gamma   120.00091416
_symmetry_Int_Tables_number   1
_chemical_formula_structural   HHeLi4
_chemical_formula_sum   'H3 He3 Li12'
_cell_volume   258.85238513
_cell_formula_units_Z   3
loop_
 _symmetry_equiv_pos_site_id
 _symmetry_equiv_pos_as_xyz
  1  'x, y, z'
loop_
 _atom_site_type_symbol
 _atom_site_label
 _atom_site_symmetry_multiplicity
 _atom_site_fract_x
 _atom_site_fract_y
 _atom_site_fract_z
 _atom_site_occupancy
  H  H0  1  -0.00000262  0.54022822  0.33331910  1
  H  H1  1  0.45976872  0.45976814  0.66665257  1
  H  H2  1  0.54023200  0.00000278  0.99999343  1
  He  He3  1  0.00000271  0.54284024  0.83333173  1
  He  He4  1  0.45716220  0.45716446  0.16666557  1
  He  He5  1  0.54283869  0.00000147  0.49999701  1
  Li  Li6  1  0.29499886  0.88803731  0.38556840  1
  Li  Li7  1  0.11196422  0.40696435  0.71890381  1
  Li  Li8  1  0.59303830  0.70499856  0.05223777  1
  Li  Li9  1  0.40698415  0.11194309  0.61440512  1
  Li  Li10  1  0.70496045  0.59301600  0.28107267  1
  Li  Li11  1  0.88805185  0.29503802  0.94774034  1
  Li  Li12  1  0.28522452  0.88209995  0.88079210  1
  Li  Li13  1  0.11789516  0.40311863  0.21411987  1
  Li  Li14  1  0.59688059  0.71477980  0.54745315  1
  Li  Li15  1  0.40312650  0.11787410  0.11919696  1
  Li  Li16  1  0.71474671  0.59686737  0.78585879  1
  Li  Li17  1  0.88212699  0.28525753  0.45252496  1
