# generated using pymatgen
data_HHe2Li4
_symmetry_space_group_name_H-M   'P 1'
_cell_length_a   8.08229501
_cell_length_b   8.08229501
_cell_length_c   8.08229501
_cell_angle_alpha   60.00000000
_cell_angle_beta   60.00000000
_cell_angle_gamma   60.00000000
_symmetry_Int_Tables_number   1
_chemical_formula_structural   HHe2Li4
_chemical_formula_sum   'H2 He4 Li8'
_cell_volume   373.32673988
_cell_formula_units_Z   2
loop_
 _symmetry_equiv_pos_site_id
 _symmetry_equiv_pos_as_xyz
  1  'x, y, z'
loop_
 _atom_site_type_symbol
 _atom_site_label
 _atom_site_symmetry_multiplicity
 _atom_site_fract_x
 _atom_site_fract_y
 _atom_site_fract_z
 _atom_site_occupancy
  H  H0  1  0.62500000  0.62500000  0.12500000  1
  H  H1  1  0.37500000  0.37500000  0.87500000  1
  He  He2  1  0.00000000  -0.00000000  0.00000000  1
  He  He3  1  0.00000000  0.50000000  0.50000000  1
  He  He4  1  0.50000000  0.00000000  0.50000000  1
  He  He5  1  0.00000000  0.00000000  0.50000000  1
  Li  Li6  1  0.75964293  0.75964293  0.72107121  1
  Li  Li7  1  0.75964293  0.22107121  0.25964293  1
  Li  Li8  1  0.22107121  0.75964293  0.25964293  1
  Li  Li9  1  0.75964293  0.75964293  0.25964293  1
  Li  Li10  1  0.24035707  0.77892879  0.74035707  1
  Li  Li11  1  0.24035707  0.24035707  0.27892879  1
  Li  Li12  1  0.77892879  0.24035707  0.74035707  1
  Li  Li13  1  0.24035707  0.24035707  0.74035707  1
