# generated using pymatgen
data_H2HeLi7Be
_symmetry_space_group_name_H-M   'P 1'
_cell_length_a   6.55028993
_cell_length_b   6.55028993
_cell_length_c   6.73066919
_cell_angle_alpha   84.76619085
_cell_angle_beta   84.76619085
_cell_angle_gamma   96.85588255
_symmetry_Int_Tables_number   1
_chemical_formula_structural   H2HeLi7Be
_chemical_formula_sum   'H2 He1 Li7 Be1'
_cell_volume   284.00094076
_cell_formula_units_Z   1
loop_
 _symmetry_equiv_pos_site_id
 _symmetry_equiv_pos_as_xyz
  1  'x, y, z'
loop_
 _atom_site_type_symbol
 _atom_site_label
 _atom_site_symmetry_multiplicity
 _atom_site_fract_x
 _atom_site_fract_y
 _atom_site_fract_z
 _atom_site_occupancy
  H  H0  1  0.34581921  0.05253695  0.91788152  1
  H  H1  1  0.94746305  0.65418079  0.08211848  1
  He  He2  1  0.89307028  0.10692972  0.50000000  1
  Li  Li3  1  0.36634977  0.31001664  0.72230062  1
  Li  Li4  1  0.68998336  0.63365023  0.27769938  1
  Li  Li5  1  0.85341394  0.52766410  0.83457310  1
  Li  Li6  1  0.47233590  0.14658606  0.16542690  1
  Li  Li7  1  0.45421043  0.81890946  0.78030857  1
  Li  Li8  1  0.18109054  0.54578957  0.21969143  1
  Li  Li9  1  0.01652272  0.98347728  0.00000000  1
  Be  Be10  1  0.49984080  0.50015920  -0.00000000  1
