# generated using pymatgen
data_HHeLiBe4
_symmetry_space_group_name_H-M   'P 1'
_cell_length_a   6.11157612
_cell_length_b   6.11157612
_cell_length_c   10.14873647
_cell_angle_alpha   90.00000000
_cell_angle_beta   90.00000000
_cell_angle_gamma   111.90661479
_symmetry_Int_Tables_number   1
_chemical_formula_structural   HHeLiBe4
_chemical_formula_sum   'H2 He2 Li2 Be8'
_cell_volume   351.69776202
_cell_formula_units_Z   2
loop_
 _symmetry_equiv_pos_site_id
 _symmetry_equiv_pos_as_xyz
  1  'x, y, z'
loop_
 _atom_site_type_symbol
 _atom_site_label
 _atom_site_symmetry_multiplicity
 _atom_site_fract_x
 _atom_site_fract_y
 _atom_site_fract_z
 _atom_site_occupancy
  H  H0  1  0.65057110  0.21859004  0.75000000  1
  H  H1  1  0.21859004  0.65057110  0.25000000  1
  He  He2  1  0.96270950  0.96270950  0.50000000  1
  He  He3  1  0.96270950  0.96270950  0.00000000  1
  Li  Li4  1  0.59229800  0.22198263  0.25000000  1
  Li  Li5  1  0.22198263  0.59229800  0.75000000  1
  Be  Be6  1  0.82901237  0.40033178  0.57131849  1
  Be  Be7  1  0.40033178  0.82901237  0.42868151  1
  Be  Be8  1  0.40033178  0.82901237  0.07131849  1
  Be  Be9  1  0.82901237  0.40033178  0.92868151  1
  Be  Be10  1  0.26626342  0.13419056  0.75000000  1
  Be  Be11  1  0.13419056  0.26626342  0.25000000  1
  Be  Be12  1  0.87451506  0.69172190  0.25000000  1
  Be  Be13  1  0.69172190  0.87451506  0.75000000  1
