# generated using pymatgen
data_H2HeLi4
_symmetry_space_group_name_H-M   'P 1'
_cell_length_a   14.29785612
_cell_length_b   14.29785612
_cell_length_c   14.29785612
_cell_angle_alpha   17.70441376
_cell_angle_beta   17.70441376
_cell_angle_gamma   17.70441376
_symmetry_Int_Tables_number   1
_chemical_formula_structural   H2HeLi4
_chemical_formula_sum   'H2 He1 Li4'
_cell_volume   235.95869271
_cell_formula_units_Z   1
loop_
 _symmetry_equiv_pos_site_id
 _symmetry_equiv_pos_as_xyz
  1  'x, y, z'
loop_
 _atom_site_type_symbol
 _atom_site_label
 _atom_site_symmetry_multiplicity
 _atom_site_fract_x
 _atom_site_fract_y
 _atom_site_fract_z
 _atom_site_occupancy
  H  H0  1  0.42599842  0.42599842  0.42599842  1
  H  H1  1  0.57400158  0.57400158  0.57400158  1
  He  He2  1  -0.00000000  -0.00000000  -0.00000000  1
  Li  Li3  1  0.13206270  0.13206270  0.13206270  1
  Li  Li4  1  0.86793730  0.86793730  0.86793730  1
  Li  Li5  1  0.28733048  0.28733048  0.28733048  1
  Li  Li6  1  0.71266952  0.71266952  0.71266952  1
