# generated using pymatgen
data_HHeLiBe
_symmetry_space_group_name_H-M   'P 1'
_cell_length_a   3.75309637
_cell_length_b   3.75309637
_cell_length_c   11.39548431
_cell_angle_alpha   90.00000000
_cell_angle_beta   90.00000000
_cell_angle_gamma   120.00092032
_symmetry_Int_Tables_number   1
_chemical_formula_structural   HHeLiBe
_chemical_formula_sum   'H2 He2 Li2 Be2'
_cell_volume   139.00768955
_cell_formula_units_Z   2
loop_
 _symmetry_equiv_pos_site_id
 _symmetry_equiv_pos_as_xyz
  1  'x, y, z'
loop_
 _atom_site_type_symbol
 _atom_site_label
 _atom_site_symmetry_multiplicity
 _atom_site_fract_x
 _atom_site_fract_y
 _atom_site_fract_z
 _atom_site_occupancy
  H  H0  1  0.33331800  0.66668200  0.27126162  1
  H  H1  1  0.66668200  0.33331800  0.77126162  1
  He  He2  1  0.99998834  0.00001166  0.33579940  1
  He  He3  1  0.00001166  0.99998834  0.83579940  1
  Li  Li4  1  0.66667892  0.33332108  0.08092401  1
  Li  Li5  1  0.33332108  0.66667892  0.58092401  1
  Be  Be6  1  0.00001492  0.99998508  0.99970497  1
  Be  Be7  1  0.99998508  0.00001492  0.49970497  1
