# generated using pymatgen
data_H10He3Li
_symmetry_space_group_name_H-M   'P 1'
_cell_length_a   8.70675184
_cell_length_b   8.70675184
_cell_length_c   8.78062405
_cell_angle_alpha   90.00000000
_cell_angle_beta   90.00000000
_cell_angle_gamma   120.00183383
_symmetry_Int_Tables_number   1
_chemical_formula_structural   H10He3Li
_chemical_formula_sum   'H20 He6 Li2'
_cell_volume   576.44824588
_cell_formula_units_Z   2
loop_
 _symmetry_equiv_pos_site_id
 _symmetry_equiv_pos_as_xyz
  1  'x, y, z'
loop_
 _atom_site_type_symbol
 _atom_site_label
 _atom_site_symmetry_multiplicity
 _atom_site_fract_x
 _atom_site_fract_y
 _atom_site_fract_z
 _atom_site_occupancy
  H  H0  1  0.20067998  0.40136104  0.04399215  1
  H  H1  1  0.59863896  0.79932002  0.04399215  1
  H  H2  1  0.20067688  0.79932312  0.04398480  1
  H  H3  1  0.79932002  0.59863896  0.54399215  1
  H  H4  1  0.40136104  0.20067998  0.54399215  1
  H  H5  1  0.79932312  0.20067688  0.54398480  1
  H  H6  1  0.40136104  0.20067998  0.95600785  1
  H  H7  1  0.79932002  0.59863896  0.95600785  1
  H  H8  1  0.79932312  0.20067688  0.95601520  1
  H  H9  1  0.59863896  0.79932002  0.45600785  1
  H  H10  1  0.20067998  0.40136104  0.45600785  1
  H  H11  1  0.20067688  0.79932312  0.45601520  1
  H  H12  1  0.53802984  0.07605956  0.25000000  1
  H  H13  1  0.92394044  0.46197016  0.25000000  1
  H  H14  1  0.53802973  0.46197027  0.25000000  1
  H  H15  1  0.46197016  0.92394044  0.75000000  1
  H  H16  1  0.07605956  0.53802984  0.75000000  1
  H  H17  1  0.46197027  0.53802973  0.75000000  1
  H  H18  1  -0.00000000  0.00000000  -0.00000000  1
  H  H19  1  0.00000000  0.00000000  0.50000000  1
  He  He20  1  0.88478853  0.76958060  0.25000000  1
  He  He21  1  0.23041940  0.11521147  0.25000000  1
  He  He22  1  0.88479224  0.11520776  0.25000000  1
  He  He23  1  0.11521147  0.23041940  0.75000000  1
  He  He24  1  0.76958060  0.88478853  0.75000000  1
  He  He25  1  0.11520776  0.88479224  0.75000000  1
  Li  Li26  1  0.33332656  0.66667344  0.25000000  1
  Li  Li27  1  0.66667344  0.33332656  0.75000000  1
