# generated using pymatgen
data_H4HeLi8
_symmetry_space_group_name_H-M   'P 1'
_cell_length_a   7.19168089
_cell_length_b   7.19168089
_cell_length_c   7.19168089
_cell_angle_alpha   92.49639725
_cell_angle_beta   92.49639725
_cell_angle_gamma   155.90739411
_symmetry_Int_Tables_number   1
_chemical_formula_structural   H4HeLi8
_chemical_formula_sum   'H4 He1 Li8'
_cell_volume   148.49346252
_cell_formula_units_Z   1
loop_
 _symmetry_equiv_pos_site_id
 _symmetry_equiv_pos_as_xyz
  1  'x, y, z'
loop_
 _atom_site_type_symbol
 _atom_site_label
 _atom_site_symmetry_multiplicity
 _atom_site_fract_x
 _atom_site_fract_y
 _atom_site_fract_z
 _atom_site_occupancy
  H  H0  1  0.34776579  0.16400936  0.51177515  1
  H  H1  1  0.65223421  0.83599064  0.48822485  1
  H  H2  1  0.83599064  0.34776579  0.18375643  1
  H  H3  1  0.16400936  0.65223421  0.81624357  1
  He  He4  1  0.50000000  0.50000000  -0.00000000  1
  Li  Li5  1  0.15471682  0.20274613  0.35746295  1
  Li  Li6  1  0.84528318  0.79725387  0.64253705  1
  Li  Li7  1  0.79725387  0.15471682  0.95197069  1
  Li  Li8  1  0.20274613  0.84528318  0.04802931  1
  Li  Li9  1  0.53917133  0.16281031  0.70198164  1
  Li  Li10  1  0.46082867  0.83718969  0.29801836  1
  Li  Li11  1  0.83718969  0.53917133  0.37636102  1
  Li  Li12  1  0.16281031  0.46082867  0.62363898  1
