# generated using pymatgen
data_HHe3
_symmetry_space_group_name_H-M   'P 1'
_cell_length_a   4.36335504
_cell_length_b   5.13100943
_cell_length_c   6.60233054
_cell_angle_alpha   90.00000000
_cell_angle_beta   90.00000000
_cell_angle_gamma   90.00000000
_symmetry_Int_Tables_number   1
_chemical_formula_structural   HHe3
_chemical_formula_sum   'H4 He12'
_cell_volume   147.81572193
_cell_formula_units_Z   4
loop_
 _symmetry_equiv_pos_site_id
 _symmetry_equiv_pos_as_xyz
  1  'x, y, z'
loop_
 _atom_site_type_symbol
 _atom_site_label
 _atom_site_symmetry_multiplicity
 _atom_site_fract_x
 _atom_site_fract_y
 _atom_site_fract_z
 _atom_site_occupancy
  H  H0  1  0.56043655  0.38325296  0.75000000  1
  H  H1  1  0.06043655  0.11674704  0.25000000  1
  H  H2  1  0.43956345  0.61674704  0.25000000  1
  H  H3  1  0.93956345  0.88325296  0.75000000  1
  He  He4  1  0.84243828  0.17927544  0.93699460  1
  He  He5  1  0.34243828  0.32072456  0.06300540  1
  He  He6  1  0.15756172  0.82072456  0.43699460  1
  He  He7  1  0.65756172  0.67927544  0.56300540  1
  He  He8  1  0.15756172  0.82072456  0.06300540  1
  He  He9  1  0.65756172  0.67927544  0.93699460  1
  He  He10  1  0.84243828  0.17927544  0.56300540  1
  He  He11  1  0.34243828  0.32072456  0.43699460  1
  He  He12  1  0.36643591  0.02843106  0.75000000  1
  He  He13  1  0.86643591  0.47156894  0.25000000  1
  He  He14  1  0.63356409  0.97156894  0.25000000  1
  He  He15  1  0.13356409  0.52843106  0.75000000  1
