# generated using pymatgen
data_H12HeLi2
_symmetry_space_group_name_H-M   'P 1'
_cell_length_a   5.23854626
_cell_length_b   5.23854626
_cell_length_c   5.23854626
_cell_angle_alpha   64.66211945
_cell_angle_beta   64.66211945
_cell_angle_gamma   64.66211945
_symmetry_Int_Tables_number   1
_chemical_formula_structural   H12HeLi2
_chemical_formula_sum   'H12 He1 Li2'
_cell_volume   112.03165216
_cell_formula_units_Z   1
loop_
 _symmetry_equiv_pos_site_id
 _symmetry_equiv_pos_as_xyz
  1  'x, y, z'
loop_
 _atom_site_type_symbol
 _atom_site_label
 _atom_site_symmetry_multiplicity
 _atom_site_fract_x
 _atom_site_fract_y
 _atom_site_fract_z
 _atom_site_occupancy
  H  H0  1  0.67926054  0.19666194  0.19666194  1
  H  H1  1  0.19666194  0.19666194  0.67926054  1
  H  H2  1  0.19666194  0.67926054  0.19666194  1
  H  H3  1  0.32073946  0.80333806  0.80333806  1
  H  H4  1  0.80333806  0.32073946  0.80333806  1
  H  H5  1  0.80333806  0.80333806  0.32073946  1
  H  H6  1  0.33189158  0.00336367  0.00336367  1
  H  H7  1  0.00336367  0.00336367  0.33189158  1
  H  H8  1  0.00336367  0.33189158  0.00336367  1
  H  H9  1  0.66810842  0.99663633  0.99663633  1
  H  H10  1  0.99663633  0.66810842  0.99663633  1
  H  H11  1  0.99663633  0.99663633  0.66810842  1
  He  He12  1  0.50000000  0.50000000  0.50000000  1
  Li  Li13  1  0.63518672  0.63518672  0.63518672  1
  Li  Li14  1  0.36481328  0.36481328  0.36481328  1
