# generated using pymatgen
data_HHeLi3
_symmetry_space_group_name_H-M   'P 1'
_cell_length_a   6.86738919
_cell_length_b   6.86738919
_cell_length_c   6.86738919
_cell_angle_alpha   90.00000000
_cell_angle_beta   90.00000000
_cell_angle_gamma   90.00000000
_symmetry_Int_Tables_number   1
_chemical_formula_structural   HHeLi3
_chemical_formula_sum   'H4 He4 Li12'
_cell_volume   323.87317775
_cell_formula_units_Z   4
loop_
 _symmetry_equiv_pos_site_id
 _symmetry_equiv_pos_as_xyz
  1  'x, y, z'
loop_
 _atom_site_type_symbol
 _atom_site_label
 _atom_site_symmetry_multiplicity
 _atom_site_fract_x
 _atom_site_fract_y
 _atom_site_fract_z
 _atom_site_occupancy
  H  H0  1  0.06481648  0.06481648  0.06481648  1
  H  H1  1  0.43518352  0.93518352  0.56481648  1
  H  H2  1  0.93518352  0.56481648  0.43518352  1
  H  H3  1  0.56481648  0.43518352  0.93518352  1
  He  He4  1  0.67985605  0.67985605  0.67985605  1
  He  He5  1  0.82014395  0.32014395  0.17985605  1
  He  He6  1  0.32014395  0.17985605  0.82014395  1
  He  He7  1  0.17985605  0.82014395  0.32014395  1
  Li  Li8  1  0.12148800  0.20347245  0.45719441  1
  Li  Li9  1  0.37851200  0.79652755  0.95719441  1
  Li  Li10  1  0.87851200  0.70347245  0.04280559  1
  Li  Li11  1  0.62148800  0.29652755  0.54280559  1
  Li  Li12  1  0.45719441  0.12148800  0.20347245  1
  Li  Li13  1  0.95719441  0.37851200  0.79652755  1
  Li  Li14  1  0.04280559  0.87851200  0.70347245  1
  Li  Li15  1  0.54280559  0.62148800  0.29652755  1
  Li  Li16  1  0.20347245  0.45719441  0.12148800  1
  Li  Li17  1  0.79652755  0.95719441  0.37851200  1
  Li  Li18  1  0.70347245  0.04280559  0.87851200  1
  Li  Li19  1  0.29652755  0.54280559  0.62148800  1
