# generated using pymatgen
data_HHeLi
_symmetry_space_group_name_H-M   'P 1'
_cell_length_a   4.44525265
_cell_length_b   7.13978393
_cell_length_c   7.49484435
_cell_angle_alpha   90.00000000
_cell_angle_beta   90.00000000
_cell_angle_gamma   90.00000000
_symmetry_Int_Tables_number   1
_chemical_formula_structural   HHeLi
_chemical_formula_sum   'H4 He4 Li4'
_cell_volume   237.87244463
_cell_formula_units_Z   4
loop_
 _symmetry_equiv_pos_site_id
 _symmetry_equiv_pos_as_xyz
  1  'x, y, z'
loop_
 _atom_site_type_symbol
 _atom_site_label
 _atom_site_symmetry_multiplicity
 _atom_site_fract_x
 _atom_site_fract_y
 _atom_site_fract_z
 _atom_site_occupancy
  H  H0  1  0.25000000  0.17952669  0.91856558  1
  H  H1  1  0.75000000  0.32047331  0.41856558  1
  H  H2  1  0.75000000  0.82047331  0.08143442  1
  H  H3  1  0.25000000  0.67952669  0.58143442  1
  He  He4  1  0.25000000  0.29902963  0.59433021  1
  He  He5  1  0.75000000  0.20097037  0.09433021  1
  He  He6  1  0.75000000  0.70097037  0.40566979  1
  He  He7  1  0.25000000  0.79902963  0.90566979  1
  Li  Li8  1  0.25000000  0.00990946  0.30352689  1
  Li  Li9  1  0.75000000  0.49009054  0.80352689  1
  Li  Li10  1  0.75000000  0.99009054  0.69647311  1
  Li  Li11  1  0.25000000  0.50990946  0.19647311  1
