# generated using pymatgen
data_HHe4Li
_symmetry_space_group_name_H-M   'P 1'
_cell_length_a   3.49434487
_cell_length_b   5.89459919
_cell_length_c   11.42114248
_cell_angle_alpha   90.00000000
_cell_angle_beta   90.00000000
_cell_angle_gamma   90.00000000
_symmetry_Int_Tables_number   1
_chemical_formula_structural   HHe4Li
_chemical_formula_sum   'H4 He16 Li4'
_cell_volume   235.24997935
_cell_formula_units_Z   4
loop_
 _symmetry_equiv_pos_site_id
 _symmetry_equiv_pos_as_xyz
  1  'x, y, z'
loop_
 _atom_site_type_symbol
 _atom_site_label
 _atom_site_symmetry_multiplicity
 _atom_site_fract_x
 _atom_site_fract_y
 _atom_site_fract_z
 _atom_site_occupancy
  H  H0  1  0.00000000  0.13849883  0.59020924  1
  H  H1  1  -0.00000000  0.86150117  0.40979076  1
  H  H2  1  -0.00000000  0.36150117  0.09020924  1
  H  H3  1  0.00000000  0.63849883  0.90979076  1
  He  He4  1  0.50000000  0.29116897  0.68752700  1
  He  He5  1  0.50000000  0.70883103  0.31247300  1
  He  He6  1  0.50000000  0.20883103  0.18752700  1
  He  He7  1  0.50000000  0.79116897  0.81247300  1
  He  He8  1  0.50000000  0.36759719  0.53067596  1
  He  He9  1  0.50000000  0.63240281  0.46932404  1
  He  He10  1  0.50000000  0.13240281  0.03067596  1
  He  He11  1  0.50000000  0.86759719  0.96932404  1
  He  He12  1  0.50000000  0.38536107  0.95231489  1
  He  He13  1  0.50000000  0.61463893  0.04768511  1
  He  He14  1  0.50000000  0.11463893  0.45231489  1
  He  He15  1  0.50000000  0.88536107  0.54768511  1
  He  He16  1  0.50000000  0.47441620  0.80645443  1
  He  He17  1  0.50000000  0.52558380  0.19354557  1
  He  He18  1  0.50000000  0.02558380  0.30645443  1
  He  He19  1  0.50000000  0.97441620  0.69354557  1
  Li  Li20  1  0.00000000  0.12999751  0.84978427  1
  Li  Li21  1  -0.00000000  0.87000249  0.15021573  1
  Li  Li22  1  -0.00000000  0.37000249  0.34978427  1
  Li  Li23  1  0.00000000  0.62999751  0.65021573  1
