# generated using pymatgen
data_HHeLi
_symmetry_space_group_name_H-M   'P 1'
_cell_length_a   6.41355514
_cell_length_b   6.41355514
_cell_length_c   6.41355514
_cell_angle_alpha   90.00000000
_cell_angle_beta   90.00000000
_cell_angle_gamma   90.00000000
_symmetry_Int_Tables_number   1
_chemical_formula_structural   HHeLi
_chemical_formula_sum   'H4 He4 Li4'
_cell_volume   263.81318626
_cell_formula_units_Z   4
loop_
 _symmetry_equiv_pos_site_id
 _symmetry_equiv_pos_as_xyz
  1  'x, y, z'
loop_
 _atom_site_type_symbol
 _atom_site_label
 _atom_site_symmetry_multiplicity
 _atom_site_fract_x
 _atom_site_fract_y
 _atom_site_fract_z
 _atom_site_occupancy
  H  H0  1  0.99674708  0.99674708  0.99674708  1
  H  H1  1  0.50325292  0.00325292  0.49674708  1
  H  H2  1  0.00325292  0.49674708  0.50325292  1
  H  H3  1  0.49674708  0.50325292  0.00325292  1
  He  He4  1  0.62338396  0.62338396  0.62338396  1
  He  He5  1  0.87661604  0.37661604  0.12338396  1
  He  He6  1  0.37661604  0.12338396  0.87661604  1
  He  He7  1  0.12338396  0.87661604  0.37661604  1
  Li  Li8  1  0.38234477  0.38234477  0.38234477  1
  Li  Li9  1  0.11765523  0.61765523  0.88234477  1
  Li  Li10  1  0.61765523  0.88234477  0.11765523  1
  Li  Li11  1  0.88234477  0.11765523  0.61765523  1
