# generated using pymatgen
data_H4HeLi
_symmetry_space_group_name_H-M   'P 1'
_cell_length_a   3.63664117
_cell_length_b   5.99020107
_cell_length_c   11.58687633
_cell_angle_alpha   90.00000000
_cell_angle_beta   90.00000000
_cell_angle_gamma   90.00000000
_symmetry_Int_Tables_number   1
_chemical_formula_structural   H4HeLi
_chemical_formula_sum   'H16 He4 Li4'
_cell_volume   252.41096845
_cell_formula_units_Z   4
loop_
 _symmetry_equiv_pos_site_id
 _symmetry_equiv_pos_as_xyz
  1  'x, y, z'
loop_
 _atom_site_type_symbol
 _atom_site_label
 _atom_site_symmetry_multiplicity
 _atom_site_fract_x
 _atom_site_fract_y
 _atom_site_fract_z
 _atom_site_occupancy
  H  H0  1  0.50000000  0.28704876  0.68456553  1
  H  H1  1  0.50000000  0.71295124  0.31543447  1
  H  H2  1  0.50000000  0.21295124  0.18456553  1
  H  H3  1  0.50000000  0.78704876  0.81543447  1
  H  H4  1  0.50000000  0.36314894  0.53158232  1
  H  H5  1  0.50000000  0.63685106  0.46841768  1
  H  H6  1  0.50000000  0.13685106  0.03158232  1
  H  H7  1  0.50000000  0.86314894  0.96841768  1
  H  H8  1  0.50000000  0.38585475  0.95277499  1
  H  H9  1  0.50000000  0.61414525  0.04722501  1
  H  H10  1  0.50000000  0.11414525  0.45277499  1
  H  H11  1  0.50000000  0.88585475  0.54722501  1
  H  H12  1  0.50000000  0.47725825  0.80811044  1
  H  H13  1  0.50000000  0.52274175  0.19188956  1
  H  H14  1  0.50000000  0.02274175  0.30811044  1
  H  H15  1  0.50000000  0.97725825  0.69188956  1
  He  He16  1  -0.00000000  0.13228334  0.58691365  1
  He  He17  1  0.00000000  0.86771666  0.41308635  1
  He  He18  1  0.00000000  0.36771666  0.08691365  1
  He  He19  1  -0.00000000  0.63228334  0.91308635  1
  Li  Li20  1  0.00000000  0.12583187  0.84945606  1
  Li  Li21  1  -0.00000000  0.87416813  0.15054394  1
  Li  Li22  1  -0.00000000  0.37416813  0.34945606  1
  Li  Li23  1  0.00000000  0.62583187  0.65054394  1
