# generated using pymatgen
data_H2HeLi4
_symmetry_space_group_name_H-M   'P 1'
_cell_length_a   5.26572270
_cell_length_b   5.26572270
_cell_length_c   8.97886044
_cell_angle_alpha   90.00000000
_cell_angle_beta   90.00000000
_cell_angle_gamma   120.00526321
_symmetry_Int_Tables_number   1
_chemical_formula_structural   H2HeLi4
_chemical_formula_sum   'H4 He2 Li8'
_cell_volume   215.59802940
_cell_formula_units_Z   2
loop_
 _symmetry_equiv_pos_site_id
 _symmetry_equiv_pos_as_xyz
  1  'x, y, z'
loop_
 _atom_site_type_symbol
 _atom_site_label
 _atom_site_symmetry_multiplicity
 _atom_site_fract_x
 _atom_site_fract_y
 _atom_site_fract_z
 _atom_site_occupancy
  H  H0  1  0.33338409  0.66670870  0.05411011  1
  H  H1  1  0.66661591  0.33329130  0.55411011  1
  H  H2  1  0.66670870  0.33338409  0.94588989  1
  H  H3  1  0.33329130  0.66661591  0.44588989  1
  He  He4  1  0.99999726  0.00000274  0.25000000  1
  He  He5  1  0.00000274  0.99999726  0.75000000  1
  Li  Li6  1  0.33331943  0.66668057  0.25000000  1
  Li  Li7  1  0.66668057  0.33331943  0.75000000  1
  Li  Li8  1  0.64462610  -0.00005541  0.00001506  1
  Li  Li9  1  -0.00005541  0.64462610  -0.00001506  1
  Li  Li10  1  0.35535168  0.35535168  0.00000000  1
  Li  Li11  1  0.35537390  0.00005541  0.50001506  1
  Li  Li12  1  0.00005541  0.35537390  0.49998494  1
  Li  Li13  1  0.64464832  0.64464832  0.50000000  1
