# generated using pymatgen
data_H2HeLi4
_symmetry_space_group_name_H-M   'P 1'
_cell_length_a   4.45953419
_cell_length_b   5.52663608
_cell_length_c   9.49309326
_cell_angle_alpha   90.00000000
_cell_angle_beta   90.00000000
_cell_angle_gamma   90.00000000
_symmetry_Int_Tables_number   1
_chemical_formula_structural   H2HeLi4
_chemical_formula_sum   'H8 He4 Li16'
_cell_volume   233.96888911
_cell_formula_units_Z   4
loop_
 _symmetry_equiv_pos_site_id
 _symmetry_equiv_pos_as_xyz
  1  'x, y, z'
loop_
 _atom_site_type_symbol
 _atom_site_label
 _atom_site_symmetry_multiplicity
 _atom_site_fract_x
 _atom_site_fract_y
 _atom_site_fract_z
 _atom_site_occupancy
  H  H0  1  0.00000000  0.00000000  0.00000000  1
  H  H1  1  0.50000000  0.00000000  0.50000000  1
  H  H2  1  0.00000000  0.50000000  0.00000000  1
  H  H3  1  0.50000000  0.50000000  0.50000000  1
  H  H4  1  0.99507238  0.75000000  0.27291231  1
  H  H5  1  0.49507238  0.25000000  0.22708769  1
  H  H6  1  0.00492762  0.25000000  0.72708769  1
  H  H7  1  0.50492762  0.75000000  0.77291231  1
  He  He8  1  0.43366998  0.75000000  0.09259579  1
  He  He9  1  0.93366998  0.25000000  0.40740421  1
  He  He10  1  0.56633002  0.25000000  0.90740421  1
  He  He11  1  0.06633002  0.75000000  0.59259579  1
  Li  Li12  1  0.78695733  0.75000000  0.09052487  1
  Li  Li13  1  0.28695733  0.25000000  0.40947513  1
  Li  Li14  1  0.21304267  0.25000000  0.90947513  1
  Li  Li15  1  0.71304267  0.75000000  0.59052487  1
  Li  Li16  1  0.24070324  0.75000000  0.43356109  1
  Li  Li17  1  0.74070324  0.25000000  0.06643891  1
  Li  Li18  1  0.75929676  0.25000000  0.56643891  1
  Li  Li19  1  0.25929676  0.75000000  0.93356109  1
  Li  Li20  1  0.25806908  0.98385054  0.16311152  1
  Li  Li21  1  0.75806908  0.01614946  0.33688848  1
  Li  Li22  1  0.74193092  0.48385054  0.83688848  1
  Li  Li23  1  0.24193092  0.51614946  0.66311152  1
  Li  Li24  1  0.74193092  0.01614946  0.83688848  1
  Li  Li25  1  0.24193092  0.98385054  0.66311152  1
  Li  Li26  1  0.25806908  0.51614946  0.16311152  1
  Li  Li27  1  0.75806908  0.48385054  0.33688848  1
