# generated using pymatgen
data_H3He3Li
_symmetry_space_group_name_H-M   'P 1'
_cell_length_a   10.56683597
_cell_length_b   10.56683597
_cell_length_c   10.56683597
_cell_angle_alpha   108.93466038
_cell_angle_beta   108.93466038
_cell_angle_gamma   110.54975452
_symmetry_Int_Tables_number   1
_chemical_formula_structural   H3He3Li
_chemical_formula_sum   'H12 He12 Li4'
_cell_volume   908.02399766
_cell_formula_units_Z   4
loop_
 _symmetry_equiv_pos_site_id
 _symmetry_equiv_pos_as_xyz
  1  'x, y, z'
loop_
 _atom_site_type_symbol
 _atom_site_label
 _atom_site_symmetry_multiplicity
 _atom_site_fract_x
 _atom_site_fract_y
 _atom_site_fract_z
 _atom_site_occupancy
  H  H0  1  0.11126253  0.36639635  0.99789700  1
  H  H1  1  0.36849934  0.11336553  0.00210300  1
  H  H2  1  0.86336553  0.36126253  0.24486619  1
  H  H3  1  0.11639635  0.61849934  0.75513381  1
  H  H4  1  0.63873747  0.13663447  0.75513381  1
  H  H5  1  0.38150066  0.88360365  0.24486619  1
  H  H6  1  0.88663447  0.63150066  0.99789700  1
  H  H7  1  0.63360365  0.88873747  0.00210300  1
  H  H8  1  0.63312479  0.36687521  0.50000000  1
  H  H9  1  0.86687521  0.13312479  0.50000000  1
  H  H10  1  0.88312479  0.88312479  0.76624959  1
  H  H11  1  0.11687521  0.11687521  0.23375041  1
  He  He12  1  0.61042108  0.38957892  0.00000000  1
  He  He13  1  0.38957892  0.61042108  0.00000000  1
  He  He14  1  0.36042108  0.86042108  0.72084217  1
  He  He15  1  0.13957892  0.63957892  0.27915783  1
  He  He16  1  0.59448083  0.60448934  0.73524539  1
  He  He17  1  0.86924395  0.85923544  0.26475461  1
  He  He18  1  0.60923544  0.84448083  0.48999148  1
  He  He19  1  0.35448934  0.11924395  0.51000852  1
  He  He20  1  0.15551917  0.39076456  0.51000852  1
  He  He21  1  0.88075605  0.64551066  0.48999148  1
  He  He22  1  0.14076456  0.13075605  0.73524539  1
  He  He23  1  0.39551066  0.40551917  0.26475461  1
  Li  Li24  1  0.37380455  0.37380455  0.74760909  1
  Li  Li25  1  0.62619545  0.62619545  0.25239091  1
  Li  Li26  1  0.37619545  0.62380455  0.50000000  1
  Li  Li27  1  0.12380455  0.87619545  0.50000000  1
