# generated using pymatgen
data_H9HeLi
_symmetry_space_group_name_H-M   'P 1'
_cell_length_a   11.97238820
_cell_length_b   9.83271716
_cell_length_c   6.70140231
_cell_angle_alpha   88.75392109
_cell_angle_beta   107.13406427
_cell_angle_gamma   107.25719496
_symmetry_Int_Tables_number   1
_chemical_formula_structural   H9HeLi
_chemical_formula_sum   'H18 He2 Li2'
_cell_volume   718.08048790
_cell_formula_units_Z   2
loop_
 _symmetry_equiv_pos_site_id
 _symmetry_equiv_pos_as_xyz
  1  'x, y, z'
loop_
 _atom_site_type_symbol
 _atom_site_label
 _atom_site_symmetry_multiplicity
 _atom_site_fract_x
 _atom_site_fract_y
 _atom_site_fract_z
 _atom_site_occupancy
  H  H0  1  0.46176251  0.73947273  0.35186272  1
  H  H1  1  0.53823749  0.26052727  0.64813728  1
  H  H2  1  0.29090519  0.50147750  0.57328839  1
  H  H3  1  0.70909481  0.49852250  0.42671161  1
  H  H4  1  0.27864877  0.94365937  0.27837076  1
  H  H5  1  0.72135123  0.05634063  0.72162924  1
  H  H6  1  0.16844168  0.60210578  0.08435524  1
  H  H7  1  0.83155832  0.39789422  0.91564476  1
  H  H8  1  0.08784022  0.68560734  0.47716752  1
  H  H9  1  0.91215978  0.31439266  0.52283248  1
  H  H10  1  0.37437502  0.84290662  0.75490041  1
  H  H11  1  0.62562498  0.15709338  0.24509959  1
  H  H12  1  0.93303415  0.79384208  0.90420904  1
  H  H13  1  0.06696585  0.20615792  0.09579096  1
  H  H14  1  0.63597333  0.63057483  0.90871466  1
  H  H15  1  0.36402667  0.36942517  0.09128534  1
  H  H16  1  0.84082278  0.86076793  0.31920332  1
  H  H17  1  0.15917722  0.13923207  0.68079668  1
  He  He18  1  0.83365990  0.65796434  0.12910028  1
  He  He19  1  0.16634010  0.34203566  0.87089972  1
  Li  Li20  1  0.28511296  0.73104094  0.42556407  1
  Li  Li21  1  0.71488704  0.26895906  0.57443593  1
