# generated using pymatgen
data_HHe7Li2
_symmetry_space_group_name_H-M   'P 1'
_cell_length_a   7.63732693
_cell_length_b   7.63732693
_cell_length_c   18.89640642
_cell_angle_alpha   72.80439524
_cell_angle_beta   72.80439524
_cell_angle_gamma   26.77504440
_symmetry_Int_Tables_number   1
_chemical_formula_structural   HHe7Li2
_chemical_formula_sum   'H2 He14 Li4'
_cell_volume   473.04770510
_cell_formula_units_Z   2
loop_
 _symmetry_equiv_pos_site_id
 _symmetry_equiv_pos_as_xyz
  1  'x, y, z'
loop_
 _atom_site_type_symbol
 _atom_site_label
 _atom_site_symmetry_multiplicity
 _atom_site_fract_x
 _atom_site_fract_y
 _atom_site_fract_z
 _atom_site_occupancy
  H  H0  1  0.68922870  0.68922870  0.78802851  1
  H  H1  1  0.31077130  0.31077130  0.21197149  1
  He  He2  1  0.35868123  0.35868123  0.98886495  1
  He  He3  1  0.64131877  0.64131877  0.01113505  1
  He  He4  1  0.57314237  0.57314237  0.70076789  1
  He  He5  1  0.42685763  0.42685763  0.29923211  1
  He  He6  1  0.09102347  0.09102347  0.85945665  1
  He  He7  1  0.90897653  0.90897653  0.14054335  1
  He  He8  1  0.83689285  0.83689285  0.82937155  1
  He  He9  1  0.16310715  0.16310715  0.17062845  1
  He  He10  1  0.53197039  0.53197039  0.57933329  1
  He  He11  1  0.46802961  0.46802961  0.42066671  1
  He  He12  1  0.79684005  0.79684005  0.55462918  1
  He  He13  1  0.20315995  0.20315995  0.44537082  1
  He  He14  1  0.25514600  0.25514600  0.70153013  1
  He  He15  1  0.74485400  0.74485400  0.29846987  1
  Li  Li16  1  0.15694527  0.15694527  0.59857593  1
  Li  Li17  1  0.84305473  0.84305473  0.40142407  1
  Li  Li18  1  0.22772706  0.22772706  0.91086431  1
  Li  Li19  1  0.77227294  0.77227294  0.08913569  1
