# generated using pymatgen
data_HHe3Li6
_symmetry_space_group_name_H-M   'P 1'
_cell_length_a   10.82344810
_cell_length_b   10.82344810
_cell_length_c   5.78219090
_cell_angle_alpha   82.21603542
_cell_angle_beta   82.21603542
_cell_angle_gamma   21.64304592
_symmetry_Int_Tables_number   1
_chemical_formula_structural   HHe3Li6
_chemical_formula_sum   'H2 He6 Li12'
_cell_volume   247.44184007
_cell_formula_units_Z   2
loop_
 _symmetry_equiv_pos_site_id
 _symmetry_equiv_pos_as_xyz
  1  'x, y, z'
loop_
 _atom_site_type_symbol
 _atom_site_label
 _atom_site_symmetry_multiplicity
 _atom_site_fract_x
 _atom_site_fract_y
 _atom_site_fract_z
 _atom_site_occupancy
  H  H0  1  0.93229334  0.93229334  0.28422581  1
  H  H1  1  0.06770666  0.06770666  0.71577419  1
  He  He2  1  0.29441070  0.29441070  0.35192734  1
  He  He3  1  0.70558930  0.70558930  0.64807266  1
  He  He4  1  0.29383650  0.29383650  0.85254436  1
  He  He5  1  0.70616350  0.70616350  0.14745564  1
  He  He6  1  0.43646342  0.43646342  0.78230275  1
  He  He7  1  0.56353658  0.56353658  0.21769725  1
  Li  Li8  1  0.22700969  0.22700969  0.63849240  1
  Li  Li9  1  0.77299031  0.77299031  0.36150760  1
  Li  Li10  1  0.22919350  0.22919350  0.13487443  1
  Li  Li11  1  0.77080650  0.77080650  0.86512557  1
  Li  Li12  1  0.93651982  0.93651982  0.78091295  1
  Li  Li13  1  0.06348018  0.06348018  0.21908705  1
  Li  Li14  1  0.35617405  0.35617405  0.06488195  1
  Li  Li15  1  0.64382595  0.64382595  0.93511805  1
  Li  Li16  1  0.35524617  0.35524617  0.57532699  1
  Li  Li17  1  0.64475383  0.64475383  0.42467301  1
  Li  Li18  1  0.50000000  0.50000000  0.50000000  1
  Li  Li19  1  0.50000000  0.50000000  0.00000000  1
