# generated using pymatgen
data_H5HeLi2Be2B
_symmetry_space_group_name_H-M   'P 1'
_cell_length_a   6.31888435
_cell_length_b   6.31888435
_cell_length_c   7.98379428
_cell_angle_alpha   85.78992270
_cell_angle_beta   85.78992270
_cell_angle_gamma   77.22921046
_symmetry_Int_Tables_number   1
_chemical_formula_structural   H5HeLi2Be2B
_chemical_formula_sum   'H10 He2 Li4 Be4 B2'
_cell_volume   309.51813779
_cell_formula_units_Z   2
loop_
 _symmetry_equiv_pos_site_id
 _symmetry_equiv_pos_as_xyz
  1  'x, y, z'
loop_
 _atom_site_type_symbol
 _atom_site_label
 _atom_site_symmetry_multiplicity
 _atom_site_fract_x
 _atom_site_fract_y
 _atom_site_fract_z
 _atom_site_occupancy
  H  H0  1  0.12917400  0.72640813  0.49948790  1
  H  H1  1  0.27359187  0.87082600  0.00051210  1
  H  H2  1  0.87082600  0.27359187  0.50051210  1
  H  H3  1  0.72640813  0.12917400  0.99948790  1
  H  H4  1  0.01527520  0.62155784  0.19331089  1
  H  H5  1  0.37844216  0.98472480  0.30668911  1
  H  H6  1  0.98472480  0.37844216  0.80668911  1
  H  H7  1  0.62155784  0.01527520  0.69331089  1
  H  H8  1  0.43802184  0.56197816  0.25000000  1
  H  H9  1  0.56197816  0.43802184  0.75000000  1
  He  He10  1  0.19721353  0.80278647  0.25000000  1
  He  He11  1  0.80278647  0.19721353  0.75000000  1
  Li  Li12  1  0.91239066  0.14730817  0.34867281  1
  Li  Li13  1  0.85269183  0.08760934  0.15132719  1
  Li  Li14  1  0.08760934  0.85269183  0.65132719  1
  Li  Li15  1  0.14730817  0.91239066  0.84867281  1
  Be  Be16  1  0.70312594  0.69983197  0.46735589  1
  Be  Be17  1  0.30016803  0.29687406  0.03264411  1
  Be  Be18  1  0.29687406  0.30016803  0.53264411  1
  Be  Be19  1  0.69983197  0.70312594  0.96735589  1
  B  B20  1  0.95073009  0.04926991  0.25000000  1
  B  B21  1  0.04926991  0.95073009  0.75000000  1
