# generated using pymatgen
data_H4He
_symmetry_space_group_name_H-M   'P 1'
_cell_length_a   6.51046417
_cell_length_b   13.38372088
_cell_length_c   15.62667083
_cell_angle_alpha   90.00000000
_cell_angle_beta   90.00000000
_cell_angle_gamma   90.00000000
_symmetry_Int_Tables_number   1
_chemical_formula_structural   H4He
_chemical_formula_sum   'H32 He8'
_cell_volume   1361.61801296
_cell_formula_units_Z   8
loop_
 _symmetry_equiv_pos_site_id
 _symmetry_equiv_pos_as_xyz
  1  'x, y, z'
loop_
 _atom_site_type_symbol
 _atom_site_label
 _atom_site_symmetry_multiplicity
 _atom_site_fract_x
 _atom_site_fract_y
 _atom_site_fract_z
 _atom_site_occupancy
  H  H0  1  0.07249893  0.23135845  0.19073140  1
  H  H1  1  0.42750107  0.76864155  0.69073140  1
  H  H2  1  0.92750107  0.73135845  0.30926860  1
  H  H3  1  0.57249893  0.26864155  0.80926860  1
  H  H4  1  0.92750107  0.76864155  0.80926860  1
  H  H5  1  0.57249893  0.23135845  0.30926860  1
  H  H6  1  0.07249893  0.26864155  0.69073140  1
  H  H7  1  0.42750107  0.73135845  0.19073140  1
  H  H8  1  0.23342743  0.02725320  0.30897304  1
  H  H9  1  0.26657257  0.97274680  0.80897304  1
  H  H10  1  0.76657257  0.52725320  0.19102696  1
  H  H11  1  0.73342743  0.47274680  0.69102696  1
  H  H12  1  0.76657257  0.97274680  0.69102696  1
  H  H13  1  0.73342743  0.02725320  0.19102696  1
  H  H14  1  0.23342743  0.47274680  0.80897304  1
  H  H15  1  0.26657257  0.52725320  0.30897304  1
  H  H16  1  0.26147023  0.01452723  0.08169350  1
  H  H17  1  0.23852977  0.98547277  0.58169350  1
  H  H18  1  0.73852977  0.51452723  0.41830650  1
  H  H19  1  0.76147023  0.48547277  0.91830650  1
  H  H20  1  0.73852977  0.98547277  0.91830650  1
  H  H21  1  0.76147023  0.01452723  0.41830650  1
  H  H22  1  0.26147023  0.48547277  0.58169350  1
  H  H23  1  0.23852977  0.51452723  0.08169350  1
  H  H24  1  0.04541891  0.24485406  0.41789547  1
  H  H25  1  0.45458109  0.75514594  0.91789547  1
  H  H26  1  0.95458109  0.74485406  0.08210453  1
  H  H27  1  0.54541891  0.25514594  0.58210453  1
  H  H28  1  0.95458109  0.75514594  0.58210453  1
  H  H29  1  0.54541891  0.24485406  0.08210453  1
  H  H30  1  0.04541891  0.25514594  0.91789547  1
  H  H31  1  0.45458109  0.74485406  0.41789547  1
  He  He32  1  0.40370439  0.12960180  0.18659898  1
  He  He33  1  0.09629561  0.87039820  0.68659898  1
  He  He34  1  0.59629561  0.62960180  0.31340102  1
  He  He35  1  0.90370439  0.37039820  0.81340102  1
  He  He36  1  0.59629561  0.87039820  0.81340102  1
  He  He37  1  0.90370439  0.12960180  0.31340102  1
  He  He38  1  0.40370439  0.37039820  0.68659898  1
  He  He39  1  0.09629561  0.62960180  0.18659898  1
