# generated using pymatgen
data_H2HeLi7Be2
_symmetry_space_group_name_H-M   'P 1'
_cell_length_a   8.30656514
_cell_length_b   8.30656514
_cell_length_c   5.47967354
_cell_angle_alpha   90.00000000
_cell_angle_beta   90.00000000
_cell_angle_gamma   90.00000000
_symmetry_Int_Tables_number   1
_chemical_formula_structural   H2HeLi7Be2
_chemical_formula_sum   'H4 He2 Li14 Be4'
_cell_volume   378.09212863
_cell_formula_units_Z   2
loop_
 _symmetry_equiv_pos_site_id
 _symmetry_equiv_pos_as_xyz
  1  'x, y, z'
loop_
 _atom_site_type_symbol
 _atom_site_label
 _atom_site_symmetry_multiplicity
 _atom_site_fract_x
 _atom_site_fract_y
 _atom_site_fract_z
 _atom_site_occupancy
  H  H0  1  0.33504187  0.16495813  0.51010350  1
  H  H1  1  0.66495813  0.83504187  0.51010350  1
  H  H2  1  0.16495813  0.66495813  0.48989650  1
  H  H3  1  0.83504187  0.33504187  0.48989650  1
  He  He4  1  0.00000000  0.00000000  0.00000000  1
  He  He5  1  0.50000000  0.50000000  0.00000000  1
  Li  Li6  1  0.50000000  0.00000000  0.13924588  1
  Li  Li7  1  0.00000000  0.50000000  0.86075412  1
  Li  Li8  1  0.14059440  0.35940560  0.25131287  1
  Li  Li9  1  0.85940560  0.64059440  0.25131287  1
  Li  Li10  1  0.35940560  0.85940560  0.74868713  1
  Li  Li11  1  0.64059440  0.14059440  0.74868713  1
  Li  Li12  1  0.07759326  0.19472743  0.82262504  1
  Li  Li13  1  0.92240674  0.80527257  0.82262504  1
  Li  Li14  1  0.19472743  0.92240674  0.17737496  1
  Li  Li15  1  0.80527257  0.07759326  0.17737496  1
  Li  Li16  1  0.42240674  0.69472743  0.17737496  1
  Li  Li17  1  0.57759326  0.30527257  0.17737496  1
  Li  Li18  1  0.30527257  0.42240674  0.82262504  1
  Li  Li19  1  0.69472743  0.57759326  0.82262504  1
  Be  Be20  1  0.13704396  0.36295604  0.95508951  1
  Be  Be21  1  0.86295604  0.63704396  0.95508951  1
  Be  Be22  1  0.36295604  0.86295604  0.04491049  1
  Be  Be23  1  0.63704396  0.13704396  0.04491049  1
