# generated using pymatgen
data_H2He3Li7Be6
_symmetry_space_group_name_H-M   'P 1'
_cell_length_a   7.83042493
_cell_length_b   7.83042493
_cell_length_c   7.83042493
_cell_angle_alpha   109.47122063
_cell_angle_beta   109.47122063
_cell_angle_gamma   109.47122063
_symmetry_Int_Tables_number   1
_chemical_formula_structural   H2He3Li7Be6
_chemical_formula_sum   'H4 He6 Li14 Be12'
_cell_volume   369.60181905
_cell_formula_units_Z   2
loop_
 _symmetry_equiv_pos_site_id
 _symmetry_equiv_pos_as_xyz
  1  'x, y, z'
loop_
 _atom_site_type_symbol
 _atom_site_label
 _atom_site_symmetry_multiplicity
 _atom_site_fract_x
 _atom_site_fract_y
 _atom_site_fract_z
 _atom_site_occupancy
  H  H0  1  -0.00000000  0.50000000  -0.00000000  1
  H  H1  1  0.50000000  0.00000000  0.00000000  1
  H  H2  1  0.50000000  0.50000000  0.50000000  1
  H  H3  1  -0.00000000  0.00000000  0.50000000  1
  He  He4  1  0.00000000  0.71698900  0.71698900  1
  He  He5  1  0.00000000  0.28301100  0.28301100  1
  He  He6  1  0.28301100  0.00000000  0.28301100  1
  He  He7  1  0.71698900  0.00000000  0.71698900  1
  He  He8  1  0.71698900  0.71698900  -0.00000000  1
  He  He9  1  0.28301100  0.28301100  0.00000000  1
  Li  Li10  1  0.00000000  0.24605510  0.00000000  1
  Li  Li11  1  0.24605510  0.00000000  0.00000000  1
  Li  Li12  1  0.75394490  0.75394490  0.75394490  1
  Li  Li13  1  -0.00000000  -0.00000000  0.24605510  1
  Li  Li14  1  0.75394490  0.00000000  -0.00000000  1
  Li  Li15  1  -0.00000000  0.75394490  -0.00000000  1
  Li  Li16  1  0.24605510  0.24605510  0.24605510  1
  Li  Li17  1  0.00000000  0.00000000  0.75394490  1
  Li  Li18  1  0.75000000  0.25000000  0.50000000  1
  Li  Li19  1  0.25000000  0.75000000  0.50000000  1
  Li  Li20  1  0.50000000  0.75000000  0.25000000  1
  Li  Li21  1  0.50000000  0.25000000  0.75000000  1
  Li  Li22  1  0.75000000  0.50000000  0.25000000  1
  Li  Li23  1  0.25000000  0.50000000  0.75000000  1
  Be  Be24  1  0.00000000  0.66736891  0.33263109  1
  Be  Be25  1  0.33473782  0.66736891  0.66736891  1
  Be  Be26  1  0.66526218  0.33263109  0.33263109  1
  Be  Be27  1  -0.00000000  0.33263109  0.66736891  1
  Be  Be28  1  0.66736891  0.33473782  0.66736891  1
  Be  Be29  1  0.33263109  -0.00000000  0.66736891  1
  Be  Be30  1  0.66736891  0.00000000  0.33263109  1
  Be  Be31  1  0.33263109  0.66526218  0.33263109  1
  Be  Be32  1  0.33263109  0.66736891  0.00000000  1
  Be  Be33  1  0.33263109  0.33263109  0.66526218  1
  Be  Be34  1  0.66736891  0.66736891  0.33473782  1
  Be  Be35  1  0.66736891  0.33263109  -0.00000000  1
