# generated using pymatgen
data_H3He
_symmetry_space_group_name_H-M   'P 1'
_cell_length_a   8.15206618
_cell_length_b   8.15018967
_cell_length_c   4.55226526
_cell_angle_alpha   90.00000000
_cell_angle_beta   90.00000000
_cell_angle_gamma   119.99875726
_symmetry_Int_Tables_number   1
_chemical_formula_structural   H3He
_chemical_formula_sum   'H6 He2'
_cell_volume   261.93832302
_cell_formula_units_Z   2
loop_
 _symmetry_equiv_pos_site_id
 _symmetry_equiv_pos_as_xyz
  1  'x, y, z'
loop_
 _atom_site_type_symbol
 _atom_site_label
 _atom_site_symmetry_multiplicity
 _atom_site_fract_x
 _atom_site_fract_y
 _atom_site_fract_z
 _atom_site_occupancy
  H  H0  1  0.30152923  0.91300377  0.25000000  1
  H  H1  1  0.08693706  0.38841577  0.25000000  1
  H  H2  1  0.61152420  0.69850880  0.25000000  1
  H  H3  1  0.69847077  0.08699623  0.75000000  1
  H  H4  1  0.91306294  0.61158423  0.75000000  1
  H  H5  1  0.38847580  0.30149120  0.75000000  1
  He  He6  1  0.66674373  0.33348761  0.25000000  1
  He  He7  1  0.33325627  0.66651239  0.75000000  1
