# generated using pymatgen
data_H11He(LiBe)4
_symmetry_space_group_name_H-M   'P 1'
_cell_length_a   5.74497502
_cell_length_b   10.12595039
_cell_length_c   10.22627649
_cell_angle_alpha   89.56089966
_cell_angle_beta   89.80416174
_cell_angle_gamma   89.99684511
_symmetry_Int_Tables_number   1
_chemical_formula_structural   H11He(LiBe)4
_chemical_formula_sum   'H22 He2 Li8 Be8'
_cell_volume   594.87563220
_cell_formula_units_Z   2
loop_
 _symmetry_equiv_pos_site_id
 _symmetry_equiv_pos_as_xyz
  1  'x, y, z'
loop_
 _atom_site_type_symbol
 _atom_site_label
 _atom_site_symmetry_multiplicity
 _atom_site_fract_x
 _atom_site_fract_y
 _atom_site_fract_z
 _atom_site_occupancy
  H  H0  1  0.48888898  0.16900444  0.41422175  1
  H  H1  1  0.51111102  0.83099556  0.58577825  1
  H  H2  1  0.50043573  0.43022980  0.30988096  1
  H  H3  1  0.49956427  0.56977020  0.69011904  1
  H  H4  1  0.99546055  0.43160336  0.30914954  1
  H  H5  1  0.00453945  0.56839664  0.69085046  1
  H  H6  1  0.50504228  0.06259215  0.14851056  1
  H  H7  1  0.49495772  0.93740785  0.85148944  1
  H  H8  1  0.24519382  0.94572476  0.36580789  1
  H  H9  1  0.75480618  0.05427524  0.63419211  1
  H  H10  1  0.49860037  0.33311920  0.04572165  1
  H  H11  1  0.50139963  0.66688080  0.95427835  1
  H  H12  1  0.00358600  0.33187228  0.04467537  1
  H  H13  1  0.99641400  0.66812772  0.95532463  1
  H  H14  1  0.99137002  0.06176446  0.15082452  1
  H  H15  1  0.00862998  0.93823554  0.84917548  1
  H  H16  1  0.01182434  0.17131707  0.41515188  1
  H  H17  1  0.98817566  0.82868293  0.58484812  1
  H  H18  1  0.67794578  0.74766191  0.26414611  1
  H  H19  1  0.32205422  0.25233809  0.73585389  1
  H  H20  1  0.74968698  0.36757275  0.53491284  1
  H  H21  1  0.25031302  0.63242725  0.46508716  1
  He  He22  1  0.28485082  0.74499669  0.27256747  1
  He  He23  1  0.71514918  0.25500331  0.72743253  1
  Li  Li24  1  0.74979583  0.20318175  0.10792366  1
  Li  Li25  1  0.25020417  0.79681825  0.89207634  1
  Li  Li26  1  0.74896073  0.29296452  0.35380039  1
  Li  Li27  1  0.25103927  0.70703548  0.64619961  1
  Li  Li28  1  0.24942263  0.12315333  0.27661690  1
  Li  Li29  1  0.75057737  0.87684667  0.72338310  1
  Li  Li30  1  0.24928550  0.37023853  0.18397368  1
  Li  Li31  1  0.75071450  0.62976147  0.81602632  1
  Be  Be32  1  0.74910719  0.53304739  0.12712314  1
  Be  Be33  1  0.25089281  0.46695261  0.87287686  1
  Be  Be34  1  0.75137484  0.96580211  0.39507973  1
  Be  Be35  1  0.24862516  0.03419789  0.60492027  1
  Be  Be36  1  0.25016609  0.12419509  0.95242820  1
  Be  Be37  1  0.74983391  0.87580491  0.04757180  1
  Be  Be38  1  0.75124438  0.61569310  0.48500266  1
  Be  Be39  1  0.24875562  0.38430690  0.51499734  1
