# generated using pymatgen
data_H24He2Li6Be
_symmetry_space_group_name_H-M   'P 1'
_cell_length_a   9.74040980
_cell_length_b   9.73865333
_cell_length_c   9.73933629
_cell_angle_alpha   64.04428283
_cell_angle_beta   64.03744425
_cell_angle_gamma   64.04498937
_symmetry_Int_Tables_number   1
_chemical_formula_structural   H24He2Li6Be
_chemical_formula_sum   'H24 He2 Li6 Be1'
_cell_volume   711.40346042
_cell_formula_units_Z   1
loop_
 _symmetry_equiv_pos_site_id
 _symmetry_equiv_pos_as_xyz
  1  'x, y, z'
loop_
 _atom_site_type_symbol
 _atom_site_label
 _atom_site_symmetry_multiplicity
 _atom_site_fract_x
 _atom_site_fract_y
 _atom_site_fract_z
 _atom_site_occupancy
  H  H0  1  0.93958357  0.79790585  0.11630602  1
  H  H1  1  0.11630504  0.93958921  0.79791434  1
  H  H2  1  0.79793880  0.11629516  0.93959025  1
  H  H3  1  0.06041643  0.20209415  0.88369398  1
  H  H4  1  0.88369496  0.06041079  0.20208566  1
  H  H5  1  0.20206120  0.88370484  0.06040975  1
  H  H6  1  0.48009415  0.76384104  0.40598967  1
  H  H7  1  0.40598434  0.48009994  0.76383977  1
  H  H8  1  0.76385287  0.40598010  0.48011215  1
  H  H9  1  0.51990585  0.23615896  0.59401033  1
  H  H10  1  0.59401566  0.51990006  0.23616023  1
  H  H11  1  0.23614713  0.59401990  0.51988785  1
  H  H12  1  0.87138285  0.63319579  0.59075012  1
  H  H13  1  0.59079226  0.87137960  0.63320558  1
  H  H14  1  0.63315984  0.59072040  0.87142642  1
  H  H15  1  0.12861715  0.36680421  0.40924988  1
  H  H16  1  0.40920774  0.12862040  0.36679442  1
  H  H17  1  0.36684016  0.40927960  0.12857358  1
  H  H18  1  0.89965549  0.62054624  0.86566751  1
  H  H19  1  0.86566977  0.89970456  0.62051625  1
  H  H20  1  0.62055644  0.86565955  0.89964640  1
  H  H21  1  0.10034451  0.37945376  0.13433249  1
  H  H22  1  0.13433023  0.10029544  0.37948375  1
  H  H23  1  0.37944356  0.13434045  0.10035360  1
  He  He24  1  0.74741195  0.74753877  0.74744168  1
  He  He25  1  0.25258805  0.25246123  0.25255832  1
  Li  Li26  1  0.70101587  0.78303824  0.26470592  1
  Li  Li27  1  0.26468623  0.70102758  0.78304781  1
  Li  Li28  1  0.78305634  0.26470405  0.70104138  1
  Li  Li29  1  0.29898413  0.21696176  0.73529408  1
  Li  Li30  1  0.73531377  0.29897242  0.21695219  1
  Li  Li31  1  0.21694366  0.73529595  0.29895862  1
  Be  Be32  1  0.00000000  -0.00000000  -0.00000000  1
