# generated using pymatgen
data_HHe4Li
_symmetry_space_group_name_H-M   'P 1'
_cell_length_a   4.92720161
_cell_length_b   4.92720161
_cell_length_c   4.92720161
_cell_angle_alpha   60.00000000
_cell_angle_beta   60.00000000
_cell_angle_gamma   60.00000000
_symmetry_Int_Tables_number   1
_chemical_formula_structural   HHe4Li
_chemical_formula_sum   'H1 He4 Li1'
_cell_volume   84.58356796
_cell_formula_units_Z   1
loop_
 _symmetry_equiv_pos_site_id
 _symmetry_equiv_pos_as_xyz
  1  'x, y, z'
loop_
 _atom_site_type_symbol
 _atom_site_label
 _atom_site_symmetry_multiplicity
 _atom_site_fract_x
 _atom_site_fract_y
 _atom_site_fract_z
 _atom_site_occupancy
  H  H0  1  0.25000000  0.25000000  0.25000000  1
  He  He1  1  0.12900606  0.62366465  0.62366465  1
  He  He2  1  0.62366465  0.12900606  0.62366465  1
  He  He3  1  0.62366465  0.62366465  0.12900606  1
  He  He4  1  0.62366465  0.62366465  0.62366465  1
  Li  Li5  1  0.00000000  0.00000000  0.00000000  1
