# generated using pymatgen
data_HHe3
_symmetry_space_group_name_H-M   'P 1'
_cell_length_a   7.38165366
_cell_length_b   7.38165366
_cell_length_c   8.69437781
_cell_angle_alpha   90.00000000
_cell_angle_beta   90.00000000
_cell_angle_gamma   137.70422621
_symmetry_Int_Tables_number   1
_chemical_formula_structural   HHe3
_chemical_formula_sum   'H4 He12'
_cell_volume   318.81134623
_cell_formula_units_Z   4
loop_
 _symmetry_equiv_pos_site_id
 _symmetry_equiv_pos_as_xyz
  1  'x, y, z'
loop_
 _atom_site_type_symbol
 _atom_site_label
 _atom_site_symmetry_multiplicity
 _atom_site_fract_x
 _atom_site_fract_y
 _atom_site_fract_z
 _atom_site_occupancy
  H  H0  1  0.41133023  0.21933683  0.44504103  1
  H  H1  1  0.21933683  0.41133023  0.55495897  1
  H  H2  1  0.21933683  0.41133023  0.94504103  1
  H  H3  1  0.41133023  0.21933683  0.05495897  1
  He  He4  1  0.72527836  0.43665325  0.17085334  1
  He  He5  1  0.43665325  0.72527836  0.82914666  1
  He  He6  1  0.43665325  0.72527836  0.67085334  1
  He  He7  1  0.72527836  0.43665325  0.32914666  1
  He  He8  1  0.22415841  0.90663497  0.05179891  1
  He  He9  1  0.90663497  0.22415841  0.94820109  1
  He  He10  1  0.90663497  0.22415841  0.55179891  1
  He  He11  1  0.22415841  0.90663497  0.44820109  1
  He  He12  1  0.31266243  0.26394551  0.87903098  1
  He  He13  1  0.26394551  0.31266243  0.12096902  1
  He  He14  1  0.26394551  0.31266243  0.37903098  1
  He  He15  1  0.31266243  0.26394551  0.62096902  1
