# generated using pymatgen
data_H2He
_symmetry_space_group_name_H-M   'P 1'
_cell_length_a   4.76904081
_cell_length_b   4.76904081
_cell_length_c   7.58010404
_cell_angle_alpha   62.67365774
_cell_angle_beta   62.67365774
_cell_angle_gamma   40.63724297
_symmetry_Int_Tables_number   1
_chemical_formula_structural   H2He
_chemical_formula_sum   'H4 He2'
_cell_volume   97.90613216
_cell_formula_units_Z   2
loop_
 _symmetry_equiv_pos_site_id
 _symmetry_equiv_pos_as_xyz
  1  'x, y, z'
loop_
 _atom_site_type_symbol
 _atom_site_label
 _atom_site_symmetry_multiplicity
 _atom_site_fract_x
 _atom_site_fract_y
 _atom_site_fract_z
 _atom_site_occupancy
  H  H0  1  0.86780179  0.86780179  0.52504110  1
  H  H1  1  0.13219821  0.13219821  0.47495890  1
  H  H2  1  0.59621600  0.59621600  0.10098376  1
  H  H3  1  0.40378400  0.40378400  0.89901624  1
  He  He4  1  0.83941671  0.83941671  0.20076304  1
  He  He5  1  0.16058329  0.16058329  0.79923696  1
