# generated using pymatgen
data_HHe4Li3
_symmetry_space_group_name_H-M   'P 1'
_cell_length_a   8.81806770
_cell_length_b   12.14425481
_cell_length_c   10.14893280
_cell_angle_alpha   90.00000000
_cell_angle_beta   90.00000000
_cell_angle_gamma   90.00000000
_symmetry_Int_Tables_number   1
_chemical_formula_structural   HHe4Li3
_chemical_formula_sum   'H4 He16 Li12'
_cell_volume   1086.83765450
_cell_formula_units_Z   4
loop_
 _symmetry_equiv_pos_site_id
 _symmetry_equiv_pos_as_xyz
  1  'x, y, z'
loop_
 _atom_site_type_symbol
 _atom_site_label
 _atom_site_symmetry_multiplicity
 _atom_site_fract_x
 _atom_site_fract_y
 _atom_site_fract_z
 _atom_site_occupancy
  H  H0  1  0.70930511  0.43677111  0.75000000  1
  H  H1  1  0.20930511  0.06322889  0.25000000  1
  H  H2  1  0.29069489  0.56322889  0.25000000  1
  H  H3  1  0.79069489  0.93677111  0.75000000  1
  He  He4  1  0.68133481  0.25748667  0.75000000  1
  He  He5  1  0.18133481  0.24251333  0.25000000  1
  He  He6  1  0.31866519  0.74251333  0.25000000  1
  He  He7  1  0.81866519  0.75748667  0.75000000  1
  He  He8  1  0.48626306  0.51877620  0.75000000  1
  He  He9  1  0.98626306  0.98122380  0.25000000  1
  He  He10  1  0.51373694  0.48122380  0.25000000  1
  He  He11  1  0.01373694  0.01877620  0.75000000  1
  He  He12  1  0.83981246  0.48592626  0.92481653  1
  He  He13  1  0.33981246  0.01407374  0.07518347  1
  He  He14  1  0.16018754  0.51407374  0.42481653  1
  He  He15  1  0.66018754  0.98592626  0.57518347  1
  He  He16  1  0.16018754  0.51407374  0.07518347  1
  He  He17  1  0.66018754  0.98592626  0.92481653  1
  He  He18  1  0.83981246  0.48592626  0.57518347  1
  He  He19  1  0.33981246  0.01407374  0.42481653  1
  Li  Li20  1  0.39065977  0.32984548  0.47174349  1
  Li  Li21  1  0.89065977  0.17015452  0.52825651  1
  Li  Li22  1  0.60934023  0.67015452  0.97174349  1
  Li  Li23  1  0.10934023  0.82984548  0.02825651  1
  Li  Li24  1  0.60934023  0.67015452  0.52825651  1
  Li  Li25  1  0.10934023  0.82984548  0.47174349  1
  Li  Li26  1  0.39065977  0.32984548  0.02825651  1
  Li  Li27  1  0.89065977  0.17015452  0.97174349  1
  Li  Li28  1  0.08206499  0.59089498  0.75000000  1
  Li  Li29  1  0.58206499  0.90910502  0.25000000  1
  Li  Li30  1  0.91793501  0.40910502  0.25000000  1
  Li  Li31  1  0.41793501  0.09089498  0.75000000  1
