# generated using pymatgen
data_H2HeLi2
_symmetry_space_group_name_H-M   'P 1'
_cell_length_a   7.10652577
_cell_length_b   6.11238407
_cell_length_c   5.46759979
_cell_angle_alpha   75.48428919
_cell_angle_beta   56.37224256
_cell_angle_gamma   48.14346825
_symmetry_Int_Tables_number   1
_chemical_formula_structural   H2HeLi2
_chemical_formula_sum   'H4 He2 Li4'
_cell_volume   144.56034340
_cell_formula_units_Z   2
loop_
 _symmetry_equiv_pos_site_id
 _symmetry_equiv_pos_as_xyz
  1  'x, y, z'
loop_
 _atom_site_type_symbol
 _atom_site_label
 _atom_site_symmetry_multiplicity
 _atom_site_fract_x
 _atom_site_fract_y
 _atom_site_fract_z
 _atom_site_occupancy
  H  H0  1  0.68003976  0.31996024  0.68003976  1
  H  H1  1  0.31996024  0.68003976  0.31996024  1
  H  H2  1  0.06996024  0.43003976  0.06996024  1
  H  H3  1  0.43003976  0.06996024  0.43003976  1
  He  He4  1  -0.00000000  0.00000000  -0.00000000  1
  He  He5  1  0.75000000  0.75000000  0.75000000  1
  Li  Li6  1  0.37200632  0.37200632  0.62799368  1
  Li  Li7  1  0.62799368  0.62799368  0.37200632  1
  Li  Li8  1  0.37799368  0.37799368  0.12200632  1
  Li  Li9  1  0.12200632  0.12200632  0.37799368  1
