# generated using pymatgen
data_H3HeLi9Be2
_symmetry_space_group_name_H-M   'P 1'
_cell_length_a   5.85263958
_cell_length_b   5.85265003
_cell_length_c   14.41099397
_cell_angle_alpha   90.00000000
_cell_angle_beta   90.00000000
_cell_angle_gamma   120.00005904
_symmetry_Int_Tables_number   1
_chemical_formula_structural   H3HeLi9Be2
_chemical_formula_sum   'H6 He2 Li18 Be4'
_cell_volume   427.49264329
_cell_formula_units_Z   2
loop_
 _symmetry_equiv_pos_site_id
 _symmetry_equiv_pos_as_xyz
  1  'x, y, z'
loop_
 _atom_site_type_symbol
 _atom_site_label
 _atom_site_symmetry_multiplicity
 _atom_site_fract_x
 _atom_site_fract_y
 _atom_site_fract_z
 _atom_site_occupancy
  H  H0  1  0.00000001  0.00000001  0.25000000  1
  H  H1  1  0.99999999  0.99999999  0.75000000  1
  H  H2  1  0.33333457  0.66666729  0.09020370  1
  H  H3  1  0.66666543  0.33333271  0.59020370  1
  H  H4  1  0.66666543  0.33333271  0.90979630  1
  H  H5  1  0.33333457  0.66666729  0.40979630  1
  He  He6  1  0.00000000  0.00000000  0.00000000  1
  He  He7  1  0.00000000  0.00000000  0.50000000  1
  Li  Li8  1  0.96823337  0.48411668  0.25000000  1
  Li  Li9  1  0.51587779  0.48411508  0.25000000  1
  Li  Li10  1  0.51587779  0.03176271  0.25000000  1
  Li  Li11  1  0.03176663  0.51588332  0.75000000  1
  Li  Li12  1  0.48412221  0.51588492  0.75000000  1
  Li  Li13  1  0.48412221  0.96823729  0.75000000  1
  Li  Li14  1  0.34240939  0.17120469  0.08377029  1
  Li  Li15  1  0.82879233  0.17120361  0.08377049  1
  Li  Li16  1  0.82879233  0.65758872  0.08377049  1
  Li  Li17  1  0.65759061  0.82879531  0.58377029  1
  Li  Li18  1  0.17120767  0.82879639  0.58377049  1
  Li  Li19  1  0.17120767  0.34241128  0.58377049  1
  Li  Li20  1  0.65759061  0.82879531  0.91622971  1
  Li  Li21  1  0.17120767  0.34241128  0.91622951  1
  Li  Li22  1  0.17120767  0.82879639  0.91622951  1
  Li  Li23  1  0.34240939  0.17120469  0.41622971  1
  Li  Li24  1  0.82879233  0.65758872  0.41622951  1
  Li  Li25  1  0.82879233  0.17120361  0.41622951  1
  Be  Be26  1  0.33333540  0.66666770  0.84623270  1
  Be  Be27  1  0.66666460  0.33333230  0.34623270  1
  Be  Be28  1  0.66666460  0.33333230  0.15376730  1
  Be  Be29  1  0.33333540  0.66666770  0.65376730  1
