# generated using pymatgen
data_H9He2
_symmetry_space_group_name_H-M   'P 1'
_cell_length_a   8.77285248
_cell_length_b   9.50620491
_cell_length_c   14.89742493
_cell_angle_alpha   90.00000000
_cell_angle_beta   90.00000000
_cell_angle_gamma   90.00000000
_symmetry_Int_Tables_number   1
_chemical_formula_structural   H9He2
_chemical_formula_sum   'H72 He16'
_cell_volume   1242.39359451
_cell_formula_units_Z   8
loop_
 _symmetry_equiv_pos_site_id
 _symmetry_equiv_pos_as_xyz
  1  'x, y, z'
loop_
 _atom_site_type_symbol
 _atom_site_label
 _atom_site_symmetry_multiplicity
 _atom_site_fract_x
 _atom_site_fract_y
 _atom_site_fract_z
 _atom_site_occupancy
  H  H0  1  0.75990161  0.60899813  0.98242589  1
  H  H1  1  0.25990161  0.89100187  0.01757411  1
  H  H2  1  0.74009839  0.39100187  0.48242589  1
  H  H3  1  0.24009839  0.10899813  0.51757411  1
  H  H4  1  0.93507947  0.46754302  0.89196526  1
  H  H5  1  0.43507947  0.03245698  0.10803474  1
  H  H6  1  0.56492053  0.53245698  0.39196526  1
  H  H7  1  0.06492053  0.96754302  0.60803474  1
  H  H8  1  0.65797165  0.47159802  0.84720224  1
  H  H9  1  0.15797165  0.02840198  0.15279776  1
  H  H10  1  0.84202835  0.52840198  0.34720224  1
  H  H11  1  0.34202835  0.97159802  0.65279776  1
  H  H12  1  0.95509644  0.72205560  0.87699216  1
  H  H13  1  0.45509644  0.77794440  0.12300784  1
  H  H14  1  0.54490356  0.27794440  0.37699216  1
  H  H15  1  0.04490356  0.22205560  0.62300784  1
  H  H16  1  0.68560641  0.72651792  0.83790317  1
  H  H17  1  0.18560641  0.77348208  0.16209683  1
  H  H18  1  0.81439359  0.27348208  0.33790317  1
  H  H19  1  0.31439359  0.22651792  0.66209683  1
  H  H20  1  0.86031331  0.57678436  0.74323895  1
  H  H21  1  0.36031331  0.92321564  0.25676105  1
  H  H22  1  0.63968669  0.42321564  0.24323895  1
  H  H23  1  0.13968669  0.07678436  0.75676105  1
  H  H24  1  0.80214095  0.28097109  0.94360373  1
  H  H25  1  0.30214095  0.21902891  0.05639627  1
  H  H26  1  0.69785905  0.71902891  0.44360373  1
  H  H27  1  0.19785905  0.78097109  0.55639627  1
  H  H28  1  0.67309050  0.25295303  0.00395875  1
  H  H29  1  0.17309050  0.24704697  0.99604125  1
  H  H30  1  0.82690950  0.74704697  0.50395875  1
  H  H31  1  0.32690950  0.75295303  0.49604125  1
  H  H32  1  0.63751748  0.40288302  0.01414460  1
  H  H33  1  0.13751748  0.09711698  0.98585540  1
  H  H34  1  0.86248252  0.59711698  0.51414460  1
  H  H35  1  0.36248252  0.90288302  0.48585540  1
  H  H36  1  0.66531413  0.87360080  0.95484280  1
  H  H37  1  0.16531413  0.62639920  0.04515720  1
  H  H38  1  0.83468587  0.12639920  0.45484280  1
  H  H39  1  0.33468587  0.37360080  0.54515720  1
  H  H40  1  0.75922394  0.93395134  0.02675598  1
  H  H41  1  0.25922394  0.56604866  0.97324402  1
  H  H42  1  0.74077606  0.06604866  0.52675598  1
  H  H43  1  0.24077606  0.43395134  0.47324402  1
  H  H44  1  0.89090267  0.84619904  0.00384722  1
  H  H45  1  0.39090267  0.65380096  0.99615278  1
  H  H46  1  0.60909733  0.15380096  0.50384722  1
  H  H47  1  0.10909733  0.34619904  0.49615278  1
  H  H48  1  0.13113948  0.67933643  0.76865246  1
  H  H49  1  0.63113948  0.82066357  0.23134754  1
  H  H50  1  0.36886052  0.32066357  0.26865246  1
  H  H51  1  0.86886052  0.17933643  0.73134754  1
  H  H52  1  0.21599147  0.55679927  0.73568059  1
  H  H53  1  0.71599147  0.94320073  0.26431941  1
  H  H54  1  0.28400853  0.44320073  0.23568059  1
  H  H55  1  0.78400853  0.05679927  0.76431941  1
  H  H56  1  0.11922186  0.45733642  0.78555063  1
  H  H57  1  0.61922186  0.04266358  0.21444937  1
  H  H58  1  0.38077814  0.54266358  0.28555063  1
  H  H59  1  0.88077814  0.95733642  0.71444937  1
  H  H60  1  0.60685157  0.70421708  0.69398284  1
  H  H61  1  0.10685157  0.79578292  0.30601716  1
  H  H62  1  0.89314843  0.29578292  0.19398284  1
  H  H63  1  0.39314843  0.20421708  0.80601716  1
  H  H64  1  0.55224153  0.59103448  0.63511632  1
  H  H65  1  0.05224153  0.90896552  0.36488368  1
  H  H66  1  0.94775847  0.40896552  0.13511632  1
  H  H67  1  0.44775847  0.09103448  0.86488368  1
  H  H68  1  0.59335491  0.48093942  0.69980512  1
  H  H69  1  0.09335491  0.01906058  0.30019488  1
  H  H70  1  0.90664509  0.51906058  0.19980512  1
  H  H71  1  0.40664509  0.98093942  0.80019488  1
  He  He72  1  0.76213982  0.45099375  0.93555499  1
  He  He73  1  0.26213982  0.04900625  0.06444501  1
  He  He74  1  0.73786018  0.54900625  0.43555499  1
  He  He75  1  0.23786018  0.95099375  0.56444501  1
  He  He76  1  0.79323010  0.75216418  0.92790703  1
  He  He77  1  0.29323010  0.74783582  0.07209297  1
  He  He78  1  0.70676990  0.24783582  0.42790703  1
  He  He79  1  0.20676990  0.25216418  0.57209297  1
  He  He80  1  0.99681435  0.58119598  0.81694750  1
  He  He81  1  0.49681435  0.91880402  0.18305250  1
  He  He82  1  0.50318565  0.41880402  0.31694750  1
  He  He83  1  0.00318565  0.08119598  0.68305250  1
  He  He84  1  0.68087598  0.59334418  0.76832623  1
  He  He85  1  0.18087598  0.90665582  0.23167377  1
  He  He86  1  0.81912402  0.40665582  0.26832623  1
  He  He87  1  0.31912402  0.09334418  0.73167377  1
