# generated using pymatgen
data_H10He6Li
_symmetry_space_group_name_H-M   'P 1'
_cell_length_a   8.55898828
_cell_length_b   8.55898828
_cell_length_c   8.69544931
_cell_angle_alpha   90.00000000
_cell_angle_beta   90.00000000
_cell_angle_gamma   136.19141421
_symmetry_Int_Tables_number   1
_chemical_formula_structural   H10He6Li
_chemical_formula_sum   'H20 He12 Li2'
_cell_volume   440.96151154
_cell_formula_units_Z   2
loop_
 _symmetry_equiv_pos_site_id
 _symmetry_equiv_pos_as_xyz
  1  'x, y, z'
loop_
 _atom_site_type_symbol
 _atom_site_label
 _atom_site_symmetry_multiplicity
 _atom_site_fract_x
 _atom_site_fract_y
 _atom_site_fract_z
 _atom_site_occupancy
  H  H0  1  0.37306079  0.02564052  0.97034638  1
  H  H1  1  0.12693921  0.47435948  0.47034638  1
  H  H2  1  0.47435948  0.12693921  0.52965362  1
  H  H3  1  0.02564052  0.37306079  0.02965362  1
  H  H4  1  0.62693921  0.97435948  0.02965362  1
  H  H5  1  0.87306079  0.52564052  0.52965362  1
  H  H6  1  0.52564052  0.87306079  0.47034638  1
  H  H7  1  0.97435948  0.62693921  0.97034638  1
  H  H8  1  0.20742676  0.79257324  0.70733806  1
  H  H9  1  0.29257324  0.70742676  0.20733806  1
  H  H10  1  0.70742676  0.29257324  0.79266194  1
  H  H11  1  0.79257324  0.20742676  0.29266194  1
  H  H12  1  0.08489691  0.41510309  0.75000000  1
  H  H13  1  0.41510309  0.08489691  0.25000000  1
  H  H14  1  0.91510309  0.58489691  0.25000000  1
  H  H15  1  0.58489691  0.91510309  0.75000000  1
  H  H16  1  0.04345152  0.95654848  0.87965251  1
  H  H17  1  0.45654848  0.54345152  0.37965251  1
  H  H18  1  0.54345152  0.45654848  0.62034749  1
  H  H19  1  0.95654848  0.04345152  0.12034749  1
  He  He20  1  0.20708264  0.79291736  0.42866972  1
  He  He21  1  0.29291736  0.70708264  0.92866972  1
  He  He22  1  0.70708264  0.29291736  0.07133028  1
  He  He23  1  0.79291736  0.20708264  0.57133028  1
  He  He24  1  0.09205564  0.90794436  0.12725299  1
  He  He25  1  0.40794436  0.59205564  0.62725299  1
  He  He26  1  0.59205564  0.40794436  0.37274701  1
  He  He27  1  0.90794436  0.09205564  0.87274701  1
  He  He28  1  0.35707367  0.14292633  0.75000000  1
  He  He29  1  0.14292633  0.35707367  0.25000000  1
  He  He30  1  0.64292633  0.85707367  0.25000000  1
  He  He31  1  0.85707367  0.64292633  0.75000000  1
  Li  Li32  1  0.50000000  0.50000000  -0.00000000  1
  Li  Li33  1  0.00000000  0.00000000  0.50000000  1
