# generated using pymatgen
data_HHe3(Li4Be)2
_symmetry_space_group_name_H-M   'P 1'
_cell_length_a   8.20581656
_cell_length_b   8.20581656
_cell_length_c   10.34108607
_cell_angle_alpha   88.18337491
_cell_angle_beta   88.18337491
_cell_angle_gamma   78.58870254
_symmetry_Int_Tables_number   1
_chemical_formula_structural   HHe3(Li4Be)2
_chemical_formula_sum   'H4 He12 Li32 Be8'
_cell_volume   681.98380125
_cell_formula_units_Z   4
loop_
 _symmetry_equiv_pos_site_id
 _symmetry_equiv_pos_as_xyz
  1  'x, y, z'
loop_
 _atom_site_type_symbol
 _atom_site_label
 _atom_site_symmetry_multiplicity
 _atom_site_fract_x
 _atom_site_fract_y
 _atom_site_fract_z
 _atom_site_occupancy
  H  H0  1  0.02190717  0.24506610  0.00140392  1
  H  H1  1  0.75493390  0.97809283  0.49859608  1
  H  H2  1  0.97809283  0.75493390  0.99859608  1
  H  H3  1  0.24506610  0.02190717  0.50140392  1
  He  He4  1  0.63645412  0.85714135  0.76822068  1
  He  He5  1  0.14285865  0.36354588  0.73177932  1
  He  He6  1  0.36354588  0.14285865  0.23177932  1
  He  He7  1  0.85714135  0.63645412  0.26822068  1
  He  He8  1  0.52630303  0.29625448  0.88013892  1
  He  He9  1  0.70374552  0.47369697  0.61986108  1
  He  He10  1  0.47369697  0.70374552  0.11986108  1
  He  He11  1  0.29625448  0.52630303  0.38013892  1
  He  He12  1  0.95771071  0.04228929  0.75000000  1
  He  He13  1  0.04228929  0.95771071  0.25000000  1
  He  He14  1  0.65273862  0.34726138  0.25000000  1
  He  He15  1  0.34726138  0.65273862  0.75000000  1
  Li  Li16  1  0.91039289  0.15874420  0.07984139  1
  Li  Li17  1  0.84125580  0.08960711  0.42015861  1
  Li  Li18  1  0.08960711  0.84125580  0.92015861  1
  Li  Li19  1  0.15874420  0.91039289  0.57984139  1
  Li  Li20  1  0.74271329  0.06449034  0.89737293  1
  Li  Li21  1  0.93550966  0.25728671  0.60262707  1
  Li  Li22  1  0.25728671  0.93550966  0.10262707  1
  Li  Li23  1  0.06449034  0.74271329  0.39737293  1
  Li  Li24  1  0.86167234  0.87010542  0.08661121  1
  Li  Li25  1  0.12989458  0.13832766  0.41338879  1
  Li  Li26  1  0.13832766  0.12989458  0.91338879  1
  Li  Li27  1  0.87010542  0.86167234  0.58661121  1
  Li  Li28  1  0.62070369  0.11368868  0.12624866  1
  Li  Li29  1  0.88631132  0.37929631  0.37375134  1
  Li  Li30  1  0.37929631  0.88631132  0.87375134  1
  Li  Li31  1  0.11368868  0.62070369  0.62624866  1
  Li  Li32  1  0.62978221  0.06976376  0.58938673  1
  Li  Li33  1  0.93023624  0.37021779  0.91061327  1
  Li  Li34  1  0.37021779  0.93023624  0.41061327  1
  Li  Li35  1  0.06976376  0.62978221  0.08938673  1
  Li  Li36  1  0.46033501  0.34126556  0.66318412  1
  Li  Li37  1  0.65873444  0.53966499  0.83681588  1
  Li  Li38  1  0.53966499  0.65873444  0.33681588  1
  Li  Li39  1  0.34126556  0.46033501  0.16318412  1
  Li  Li40  1  0.31612628  0.12084953  0.59330780  1
  Li  Li41  1  0.87915047  0.68387372  0.90669220  1
  Li  Li42  1  0.68387372  0.87915047  0.40669220  1
  Li  Li43  1  0.12084953  0.31612628  0.09330780  1
  Li  Li44  1  0.46849219  0.27290353  0.42160943  1
  Li  Li45  1  0.72709647  0.53150781  0.07839057  1
  Li  Li46  1  0.53150781  0.72709647  0.57839057  1
  Li  Li47  1  0.27290353  0.46849219  0.92160943  1
  Be  Be48  1  0.77293391  0.05472686  0.04205779  1
  Be  Be49  1  0.94527314  0.22706609  0.45794221  1
  Be  Be50  1  0.22706609  0.94527314  0.95794221  1
  Be  Be51  1  0.05472686  0.77293391  0.54205779  1
  Be  Be52  1  0.46894083  0.21009739  0.56120528  1
  Be  Be53  1  0.78990261  0.53105917  0.93879472  1
  Be  Be54  1  0.53105917  0.78990261  0.43879472  1
  Be  Be55  1  0.21009739  0.46894083  0.06120528  1
