# generated using pymatgen
data_H3HeLi
_symmetry_space_group_name_H-M   'P 1'
_cell_length_a   3.16067934
_cell_length_b   5.42173954
_cell_length_c   6.83368136
_cell_angle_alpha   78.34146796
_cell_angle_beta   90.00000000
_cell_angle_gamma   90.00000000
_symmetry_Int_Tables_number   1
_chemical_formula_structural   H3HeLi
_chemical_formula_sum   'H6 He2 Li2'
_cell_volume   114.68861491
_cell_formula_units_Z   2
loop_
 _symmetry_equiv_pos_site_id
 _symmetry_equiv_pos_as_xyz
  1  'x, y, z'
loop_
 _atom_site_type_symbol
 _atom_site_label
 _atom_site_symmetry_multiplicity
 _atom_site_fract_x
 _atom_site_fract_y
 _atom_site_fract_z
 _atom_site_occupancy
  H  H0  1  0.75000000  0.58210363  0.47589211  1
  H  H1  1  0.25000000  0.41789637  0.52410789  1
  H  H2  1  0.75000000  0.58778757  0.99541527  1
  H  H3  1  0.25000000  0.41221243  0.00458473  1
  H  H4  1  0.75000000  0.91610123  0.99327930  1
  H  H5  1  0.25000000  0.08389877  0.00672070  1
  He  He6  1  0.75000000  0.17667516  0.28972931  1
  He  He7  1  0.25000000  0.82332484  0.71027069  1
  Li  Li8  1  0.75000000  0.31027606  0.77937484  1
  Li  Li9  1  0.25000000  0.68972394  0.22062516  1
