# generated using pymatgen
data_H5HeLi2
_symmetry_space_group_name_H-M   'P 1'
_cell_length_a   9.59610516
_cell_length_b   9.59610516
_cell_length_c   9.59610516
_cell_angle_alpha   127.47194983
_cell_angle_beta   127.47194983
_cell_angle_gamma   77.48202371
_symmetry_Int_Tables_number   1
_chemical_formula_structural   H5HeLi2
_chemical_formula_sum   'H10 He2 Li4'
_cell_volume   539.84939092
_cell_formula_units_Z   2
loop_
 _symmetry_equiv_pos_site_id
 _symmetry_equiv_pos_as_xyz
  1  'x, y, z'
loop_
 _atom_site_type_symbol
 _atom_site_label
 _atom_site_symmetry_multiplicity
 _atom_site_fract_x
 _atom_site_fract_y
 _atom_site_fract_z
 _atom_site_occupancy
  H  H0  1  -0.00000000  -0.00000000  0.00000000  1
  H  H1  1  0.50000000  0.50000000  0.00000000  1
  H  H2  1  0.47361580  0.97361580  0.17797542  1
  H  H3  1  0.79564038  0.29564038  0.82202458  1
  H  H4  1  0.29564038  0.47361580  0.50000000  1
  H  H5  1  0.97361580  0.79564038  0.50000000  1
  H  H6  1  0.02638420  0.20435962  0.50000000  1
  H  H7  1  0.70435962  0.52638420  0.50000000  1
  H  H8  1  0.20435962  0.70435962  0.17797542  1
  H  H9  1  0.52638420  0.02638420  0.82202458  1
  He  He10  1  0.75000000  0.75000000  0.00000000  1
  He  He11  1  0.25000000  0.25000000  -0.00000000  1
  Li  Li12  1  0.82546160  0.32546160  0.15092320  1
  Li  Li13  1  0.17453840  0.67453840  0.84907680  1
  Li  Li14  1  0.67453840  0.82546160  0.50000000  1
  Li  Li15  1  0.32546160  0.17453840  0.50000000  1
