# generated using pymatgen
data_H5HeLi9
_symmetry_space_group_name_H-M   'P 1'
_cell_length_a   8.10720615
_cell_length_b   8.10720615
_cell_length_c   7.76211715
_cell_angle_alpha   90.00000000
_cell_angle_beta   90.00000000
_cell_angle_gamma   138.61238770
_symmetry_Int_Tables_number   1
_chemical_formula_structural   H5HeLi9
_chemical_formula_sum   'H10 He2 Li18'
_cell_volume   337.30471516
_cell_formula_units_Z   2
loop_
 _symmetry_equiv_pos_site_id
 _symmetry_equiv_pos_as_xyz
  1  'x, y, z'
loop_
 _atom_site_type_symbol
 _atom_site_label
 _atom_site_symmetry_multiplicity
 _atom_site_fract_x
 _atom_site_fract_y
 _atom_site_fract_z
 _atom_site_occupancy
  H  H0  1  0.86409331  0.63193128  0.33289746  1
  H  H1  1  0.13590669  0.36806872  0.83289746  1
  H  H2  1  0.63193128  0.86409331  0.83289746  1
  H  H3  1  0.36806872  0.13590669  0.33289746  1
  H  H4  1  0.25546795  0.74453205  0.51834000  1
  H  H5  1  0.74453205  0.25546795  0.01834000  1
  H  H6  1  0.44364818  0.55635182  0.51568276  1
  H  H7  1  0.55635182  0.44364818  0.01568276  1
  H  H8  1  0.29660870  0.70339130  0.16699371  1
  H  H9  1  0.70339130  0.29660870  0.66699371  1
  He  He10  1  0.01584272  0.98415728  0.05326985  1
  He  He11  1  0.98415728  0.01584272  0.55326985  1
  Li  Li12  1  0.33055795  0.66944205  0.70170786  1
  Li  Li13  1  0.66944205  0.33055795  0.20170786  1
  Li  Li14  1  0.93312292  0.55260843  0.53382123  1
  Li  Li15  1  0.06687708  0.44739157  0.03382123  1
  Li  Li16  1  0.55260843  0.93312292  0.03382123  1
  Li  Li17  1  0.44739157  0.06687708  0.53382123  1
  Li  Li18  1  0.45450726  0.54549274  0.90470679  1
  Li  Li19  1  0.54549274  0.45450726  0.40470679  1
  Li  Li20  1  0.04641478  0.95358522  0.42592172  1
  Li  Li21  1  0.95358522  0.04641478  0.92592172  1
  Li  Li22  1  0.35172595  0.64827405  0.37039574  1
  Li  Li23  1  0.64827405  0.35172595  0.87039574  1
  Li  Li24  1  0.19119995  0.80880005  0.26936532  1
  Li  Li25  1  0.80880005  0.19119995  0.76936532  1
  Li  Li26  1  0.83869289  0.74184124  0.11713944  1
  Li  Li27  1  0.16130711  0.25815876  0.61713944  1
  Li  Li28  1  0.74184124  0.83869289  0.61713944  1
  Li  Li29  1  0.25815876  0.16130711  0.11713944  1
