# generated using pymatgen
data_HHe2Li4
_symmetry_space_group_name_H-M   'P 1'
_cell_length_a   8.05707230
_cell_length_b   6.74509767
_cell_length_c   6.50715127
_cell_angle_alpha   74.86271552
_cell_angle_beta   53.91242705
_cell_angle_gamma   51.22485744
_symmetry_Int_Tables_number   1
_chemical_formula_structural   HHe2Li4
_chemical_formula_sum   'H2 He4 Li8'
_cell_volume   219.51376967
_cell_formula_units_Z   2
loop_
 _symmetry_equiv_pos_site_id
 _symmetry_equiv_pos_as_xyz
  1  'x, y, z'
loop_
 _atom_site_type_symbol
 _atom_site_label
 _atom_site_symmetry_multiplicity
 _atom_site_fract_x
 _atom_site_fract_y
 _atom_site_fract_z
 _atom_site_occupancy
  H  H0  1  0.12500000  0.12500000  0.12500000  1
  H  H1  1  0.87500000  0.87500000  0.87500000  1
  He  He2  1  0.44469123  0.80530877  0.44469123  1
  He  He3  1  0.80530877  0.44469123  0.80530877  1
  He  He4  1  0.55530877  0.19469123  0.55530877  1
  He  He5  1  0.19469123  0.55530877  0.19469123  1
  Li  Li6  1  0.28979944  0.79405943  0.16594492  1
  Li  Li7  1  0.79405943  0.28979944  0.25019620  1
  Li  Li8  1  0.16594492  0.25019620  0.28979944  1
  Li  Li9  1  0.25019620  0.16594492  0.79405943  1
  Li  Li10  1  0.71020056  0.20594057  0.83405508  1
  Li  Li11  1  0.20594057  0.71020056  0.74980380  1
  Li  Li12  1  0.83405508  0.74980380  0.71020056  1
  Li  Li13  1  0.74980380  0.83405508  0.20594057  1
