# generated using pymatgen
data_HHeLi
_symmetry_space_group_name_H-M   'P 1'
_cell_length_a   3.78216040
_cell_length_b   6.27370113
_cell_length_c   6.94177875
_cell_angle_alpha   90.00000000
_cell_angle_beta   90.00000000
_cell_angle_gamma   90.00000000
_symmetry_Int_Tables_number   1
_chemical_formula_structural   HHeLi
_chemical_formula_sum   'H4 He4 Li4'
_cell_volume   164.71552581
_cell_formula_units_Z   4
loop_
 _symmetry_equiv_pos_site_id
 _symmetry_equiv_pos_as_xyz
  1  'x, y, z'
loop_
 _atom_site_type_symbol
 _atom_site_label
 _atom_site_symmetry_multiplicity
 _atom_site_fract_x
 _atom_site_fract_y
 _atom_site_fract_z
 _atom_site_occupancy
  H  H0  1  0.25000000  0.15004530  0.43029457  1
  H  H1  1  0.75000000  0.34995470  0.93029457  1
  H  H2  1  0.75000000  0.84995470  0.56970543  1
  H  H3  1  0.25000000  0.65004530  0.06970543  1
  He  He4  1  0.25000000  0.77928013  0.39166915  1
  He  He5  1  0.75000000  0.72071987  0.89166915  1
  He  He6  1  0.75000000  0.22071987  0.60833085  1
  He  He7  1  0.25000000  0.27928013  0.10833085  1
  Li  Li8  1  0.25000000  0.00690490  0.80897002  1
  Li  Li9  1  0.75000000  0.49309510  0.30897002  1
  Li  Li10  1  0.75000000  0.99309510  0.19102998  1
  Li  Li11  1  0.25000000  0.50690490  0.69102998  1
