# generated using pymatgen
data_H2He3
_symmetry_space_group_name_H-M   'P 1'
_cell_length_a   8.17125113
_cell_length_b   8.17125113
_cell_length_c   10.17598186
_cell_angle_alpha   85.09719851
_cell_angle_beta   85.09719851
_cell_angle_gamma   30.46201439
_symmetry_Int_Tables_number   1
_chemical_formula_structural   H2He3
_chemical_formula_sum   'H4 He6'
_cell_volume   343.10157679
_cell_formula_units_Z   2
loop_
 _symmetry_equiv_pos_site_id
 _symmetry_equiv_pos_as_xyz
  1  'x, y, z'
loop_
 _atom_site_type_symbol
 _atom_site_label
 _atom_site_symmetry_multiplicity
 _atom_site_fract_x
 _atom_site_fract_y
 _atom_site_fract_z
 _atom_site_occupancy
  H  H0  1  0.76545555  0.76545555  0.18659099  1
  H  H1  1  0.23454445  0.23454445  0.81340901  1
  H  H2  1  0.97639469  0.97639469  0.79113275  1
  H  H3  1  0.02360531  0.02360531  0.20886725  1
  He  He4  1  0.17112171  0.17112171  0.35710469  1
  He  He5  1  0.82887829  0.82887829  0.64289531  1
  He  He6  1  0.43168954  0.43168954  0.35648170  1
  He  He7  1  0.56831046  0.56831046  0.64351830  1
  He  He8  1  0.36187157  0.36187157  0.99947647  1
  He  He9  1  0.63812843  0.63812843  0.00052353  1
