# generated using pymatgen
data_H5HeLi2
_symmetry_space_group_name_H-M   'P 1'
_cell_length_a   8.02161287
_cell_length_b   8.02161287
_cell_length_c   8.02161287
_cell_angle_alpha   96.00402962
_cell_angle_beta   96.00402962
_cell_angle_gamma   142.26063377
_symmetry_Int_Tables_number   1
_chemical_formula_structural   H5HeLi2
_chemical_formula_sum   'H10 He2 Li4'
_cell_volume   298.94788939
_cell_formula_units_Z   2
loop_
 _symmetry_equiv_pos_site_id
 _symmetry_equiv_pos_as_xyz
  1  'x, y, z'
loop_
 _atom_site_type_symbol
 _atom_site_label
 _atom_site_symmetry_multiplicity
 _atom_site_fract_x
 _atom_site_fract_y
 _atom_site_fract_z
 _atom_site_occupancy
  H  H0  1  0.93056218  0.79022717  0.72078935  1
  H  H1  1  0.06943782  0.20977283  0.27921065  1
  H  H2  1  0.20977283  0.93056218  0.14033501  1
  H  H3  1  0.79022717  0.06943782  0.85966499  1
  H  H4  1  0.56943782  0.29022717  0.85966499  1
  H  H5  1  0.43056218  0.70977283  0.14033501  1
  H  H6  1  0.29022717  0.43056218  0.72078935  1
  H  H7  1  0.70977283  0.56943782  0.27921065  1
  H  H8  1  0.75000000  0.25000000  0.50000000  1
  H  H9  1  0.25000000  0.75000000  0.50000000  1
  He  He10  1  0.75000000  0.75000000  -0.00000000  1
  He  He11  1  0.25000000  0.25000000  -0.00000000  1
  Li  Li12  1  0.83111286  0.33111286  0.16222572  1
  Li  Li13  1  0.16888714  0.66888714  0.83777428  1
  Li  Li14  1  0.66888714  0.83111286  0.50000000  1
  Li  Li15  1  0.33111286  0.16888714  0.50000000  1
