# generated using pymatgen
data_H2He4Li
_symmetry_space_group_name_H-M   'P 1'
_cell_length_a   6.07185907
_cell_length_b   5.60646995
_cell_length_c   12.12691311
_cell_angle_alpha   84.67534666
_cell_angle_beta   90.00000000
_cell_angle_gamma   90.00000000
_symmetry_Int_Tables_number   1
_chemical_formula_structural   H2He4Li
_chemical_formula_sum   'H8 He16 Li4'
_cell_volume   411.03930389
_cell_formula_units_Z   4
loop_
 _symmetry_equiv_pos_site_id
 _symmetry_equiv_pos_as_xyz
  1  'x, y, z'
loop_
 _atom_site_type_symbol
 _atom_site_label
 _atom_site_symmetry_multiplicity
 _atom_site_fract_x
 _atom_site_fract_y
 _atom_site_fract_z
 _atom_site_occupancy
  H  H0  1  0.34585056  0.75676239  0.50914550  1
  H  H1  1  0.84585056  0.24323761  0.99085450  1
  H  H2  1  0.65414944  0.24323761  0.49085450  1
  H  H3  1  0.15414944  0.75676239  0.00914550  1
  H  H4  1  0.91148411  0.74343500  0.69566025  1
  H  H5  1  0.41148411  0.25656500  0.80433975  1
  H  H6  1  0.08851589  0.25656500  0.30433975  1
  H  H7  1  0.58851589  0.74343500  0.19566025  1
  He  He8  1  0.04939168  0.87769655  0.40135098  1
  He  He9  1  0.54939168  0.12230345  0.09864902  1
  He  He10  1  0.95060832  0.12230345  0.59864902  1
  He  He11  1  0.45060832  0.87769655  0.90135098  1
  He  He12  1  0.61018958  0.92616622  0.37041821  1
  He  He13  1  0.11018958  0.07383378  0.12958179  1
  He  He14  1  0.38981042  0.07383378  0.62958179  1
  He  He15  1  0.88981042  0.92616622  0.87041821  1
  He  He16  1  0.79852151  0.50852198  0.33636584  1
  He  He17  1  0.29852151  0.49147802  0.16363416  1
  He  He18  1  0.20147849  0.49147802  0.66363416  1
  He  He19  1  0.70147849  0.50852198  0.83636584  1
  He  He20  1  0.73271620  0.63490422  0.53900469  1
  He  He21  1  0.23271620  0.36509578  0.96099531  1
  He  He22  1  0.26728380  0.36509578  0.46099531  1
  He  He23  1  0.76728380  0.63490422  0.03900469  1
  Li  Li24  1  0.81377982  0.74000473  0.41262385  1
  Li  Li25  1  0.31377982  0.25999527  0.08737615  1
  Li  Li26  1  0.18622018  0.25999527  0.58737615  1
  Li  Li27  1  0.68622018  0.74000473  0.91262385  1
