# generated using pymatgen
data_HHe4
_symmetry_space_group_name_H-M   'P 1'
_cell_length_a   6.64103860
_cell_length_b   6.64103860
_cell_length_c   6.95245673
_cell_angle_alpha   90.00000000
_cell_angle_beta   90.00000000
_cell_angle_gamma   90.00000000
_symmetry_Int_Tables_number   1
_chemical_formula_structural   HHe4
_chemical_formula_sum   'H2 He8'
_cell_volume   306.62693617
_cell_formula_units_Z   2
loop_
 _symmetry_equiv_pos_site_id
 _symmetry_equiv_pos_as_xyz
  1  'x, y, z'
loop_
 _atom_site_type_symbol
 _atom_site_label
 _atom_site_symmetry_multiplicity
 _atom_site_fract_x
 _atom_site_fract_y
 _atom_site_fract_z
 _atom_site_occupancy
  H  H0  1  -0.00000000  -0.00000000  0.25000000  1
  H  H1  1  -0.00000000  -0.00000000  0.75000000  1
  He  He2  1  0.32282276  0.13984371  -0.00000000  1
  He  He3  1  0.67717724  0.86015629  0.00000000  1
  He  He4  1  0.86015629  0.32282276  -0.00000000  1
  He  He5  1  0.13984371  0.67717724  0.00000000  1
  He  He6  1  0.67717724  0.13984371  0.50000000  1
  He  He7  1  0.32282276  0.86015629  0.50000000  1
  He  He8  1  0.13984371  0.32282276  0.50000000  1
  He  He9  1  0.86015629  0.67717724  0.50000000  1
