# generated using pymatgen
data_H7HeLi
_symmetry_space_group_name_H-M   'P 1'
_cell_length_a   11.20785166
_cell_length_b   5.72880389
_cell_length_c   11.50151012
_cell_angle_alpha   85.59729160
_cell_angle_beta   90.00000000
_cell_angle_gamma   90.00000000
_symmetry_Int_Tables_number   1
_chemical_formula_structural   H7HeLi
_chemical_formula_sum   'H28 He4 Li4'
_cell_volume   736.30500529
_cell_formula_units_Z   4
loop_
 _symmetry_equiv_pos_site_id
 _symmetry_equiv_pos_as_xyz
  1  'x, y, z'
loop_
 _atom_site_type_symbol
 _atom_site_label
 _atom_site_symmetry_multiplicity
 _atom_site_fract_x
 _atom_site_fract_y
 _atom_site_fract_z
 _atom_site_occupancy
  H  H0  1  0.44152341  0.29090556  0.58029685  1
  H  H1  1  0.94152341  0.70909444  0.91970315  1
  H  H2  1  0.55847659  0.70909444  0.41970315  1
  H  H3  1  0.05847659  0.29090556  0.08029685  1
  H  H4  1  0.10131841  0.62824046  0.75248413  1
  H  H5  1  0.60131841  0.37175954  0.74751587  1
  H  H6  1  0.89868159  0.37175954  0.24751587  1
  H  H7  1  0.39868159  0.62824046  0.25248413  1
  H  H8  1  0.11513659  0.62631474  0.48091628  1
  H  H9  1  0.61513659  0.37368526  0.01908372  1
  H  H10  1  0.88486341  0.37368526  0.51908372  1
  H  H11  1  0.38486341  0.62631474  0.98091628  1
  H  H12  1  0.37460163  0.99621162  0.37913248  1
  H  H13  1  0.87460163  0.00378838  0.12086752  1
  H  H14  1  0.62539837  0.00378838  0.62086752  1
  H  H15  1  0.12539837  0.99621162  0.87913248  1
  H  H16  1  0.12209545  0.22994642  0.30758777  1
  H  H17  1  0.62209545  0.77005358  0.19241223  1
  H  H18  1  0.87790455  0.77005358  0.69241223  1
  H  H19  1  0.37790455  0.22994642  0.80758777  1
  H  H20  1  0.07345821  0.07163975  0.64141494  1
  H  H21  1  0.57345821  0.92836025  0.85858506  1
  H  H22  1  0.92654179  0.92836025  0.35858506  1
  H  H23  1  0.42654179  0.07163975  0.14141494  1
  H  H24  1  0.40561067  0.85324920  0.68506333  1
  H  H25  1  0.90561067  0.14675080  0.81493667  1
  H  H26  1  0.59438933  0.14675080  0.31493667  1
  H  H27  1  0.09438933  0.85324920  0.18506333  1
  He  He28  1  0.50720769  0.10036474  0.72647107  1
  He  He29  1  0.00720769  0.89963526  0.77352893  1
  He  He30  1  0.49279231  0.89963526  0.27352893  1
  He  He31  1  0.99279231  0.10036474  0.22647107  1
  Li  Li32  1  0.26533467  0.46274614  0.53092141  1
  Li  Li33  1  0.76533467  0.53725386  0.96907859  1
  Li  Li34  1  0.73466533  0.53725386  0.46907859  1
  Li  Li35  1  0.23466533  0.46274614  0.03092141  1
