# generated using pymatgen
data_H2HeLi2
_symmetry_space_group_name_H-M   'P 1'
_cell_length_a   4.69082575
_cell_length_b   4.72741091
_cell_length_c   11.46441684
_cell_angle_alpha   89.46822669
_cell_angle_beta   90.00000000
_cell_angle_gamma   90.00000000
_symmetry_Int_Tables_number   1
_chemical_formula_structural   H2HeLi2
_chemical_formula_sum   'H4 He2 Li4'
_cell_volume   254.21777691
_cell_formula_units_Z   2
loop_
 _symmetry_equiv_pos_site_id
 _symmetry_equiv_pos_as_xyz
  1  'x, y, z'
loop_
 _atom_site_type_symbol
 _atom_site_label
 _atom_site_symmetry_multiplicity
 _atom_site_fract_x
 _atom_site_fract_y
 _atom_site_fract_z
 _atom_site_occupancy
  H  H0  1  0.25000000  0.77291678  0.13118093  1
  H  H1  1  0.75000000  0.22710470  0.86901688  1
  H  H2  1  0.25000000  0.24510858  0.49956835  1
  H  H3  1  0.75000000  0.75488742  0.50052658  1
  He  He4  1  0.25000000  0.74173887  0.75524613  1
  He  He5  1  0.75000000  0.25823356  0.24489573  1
  Li  Li6  1  0.25000000  0.74425425  0.36163918  1
  Li  Li7  1  0.75000000  0.25573098  0.63857850  1
  Li  Li8  1  0.25000000  0.27145062  0.00074277  1
  Li  Li9  1  0.75000000  0.72857424  0.99960495  1
