# generated using pymatgen
data_HHe3Li3
_symmetry_space_group_name_H-M   'P 1'
_cell_length_a   9.42206740
_cell_length_b   9.42206740
_cell_length_c   9.42206740
_cell_angle_alpha   109.47122063
_cell_angle_beta   109.47122063
_cell_angle_gamma   109.47122063
_symmetry_Int_Tables_number   1
_chemical_formula_structural   HHe3Li3
_chemical_formula_sum   'H4 He12 Li12'
_cell_volume   643.89748612
_cell_formula_units_Z   4
loop_
 _symmetry_equiv_pos_site_id
 _symmetry_equiv_pos_as_xyz
  1  'x, y, z'
loop_
 _atom_site_type_symbol
 _atom_site_label
 _atom_site_symmetry_multiplicity
 _atom_site_fract_x
 _atom_site_fract_y
 _atom_site_fract_z
 _atom_site_occupancy
  H  H0  1  0.00000000  -0.00000000  0.29634559  1
  H  H1  1  0.29634559  0.00000000  0.00000000  1
  H  H2  1  0.00000000  0.29634559  0.00000000  1
  H  H3  1  0.70365441  0.70365441  0.70365441  1
  He  He4  1  0.73032589  -0.00000000  0.48544196  1
  He  He5  1  0.48544196  0.00000000  0.73032589  1
  He  He6  1  0.26967411  0.75511607  0.26967411  1
  He  He7  1  0.51455804  0.24488393  0.51455804  1
  He  He8  1  0.26967411  0.26967411  0.75511607  1
  He  He9  1  0.51455804  0.51455804  0.24488393  1
  He  He10  1  0.48544196  0.73032589  0.00000000  1
  He  He11  1  0.73032589  0.48544196  -0.00000000  1
  He  He12  1  -0.00000000  0.73032589  0.48544196  1
  He  He13  1  0.00000000  0.48544196  0.73032589  1
  He  He14  1  0.24488393  0.51455804  0.51455804  1
  He  He15  1  0.75511607  0.26967411  0.26967411  1
  Li  Li16  1  0.20898647  0.00000000  0.47129401  1
  Li  Li17  1  0.47129401  0.00000000  0.20898647  1
  Li  Li18  1  0.79101353  0.26230754  0.79101353  1
  Li  Li19  1  0.52870599  0.73769246  0.52870599  1
  Li  Li20  1  0.79101353  0.79101353  0.26230754  1
  Li  Li21  1  0.52870599  0.52870599  0.73769246  1
  Li  Li22  1  0.47129401  0.20898647  0.00000000  1
  Li  Li23  1  0.20898647  0.47129401  0.00000000  1
  Li  Li24  1  0.00000000  0.20898647  0.47129401  1
  Li  Li25  1  0.00000000  0.47129401  0.20898647  1
  Li  Li26  1  0.73769246  0.52870599  0.52870599  1
  Li  Li27  1  0.26230754  0.79101353  0.79101353  1
