# generated using pymatgen
data_HHeLi
_symmetry_space_group_name_H-M   'P 1'
_cell_length_a   3.58782371
_cell_length_b   6.39549019
_cell_length_c   7.91014428
_cell_angle_alpha   90.00000000
_cell_angle_beta   90.00000000
_cell_angle_gamma   90.00000000
_symmetry_Int_Tables_number   1
_chemical_formula_structural   HHeLi
_chemical_formula_sum   'H4 He4 Li4'
_cell_volume   181.50531131
_cell_formula_units_Z   4
loop_
 _symmetry_equiv_pos_site_id
 _symmetry_equiv_pos_as_xyz
  1  'x, y, z'
loop_
 _atom_site_type_symbol
 _atom_site_label
 _atom_site_symmetry_multiplicity
 _atom_site_fract_x
 _atom_site_fract_y
 _atom_site_fract_z
 _atom_site_occupancy
  H  H0  1  0.25000000  0.12809117  0.44727317  1
  H  H1  1  0.75000000  0.37190883  0.94727317  1
  H  H2  1  0.75000000  0.87190883  0.55272683  1
  H  H3  1  0.25000000  0.62809117  0.05272683  1
  He  He4  1  0.25000000  0.05303879  0.83607349  1
  He  He5  1  0.75000000  0.44696121  0.33607349  1
  He  He6  1  0.75000000  0.94696121  0.16392651  1
  He  He7  1  0.25000000  0.55303879  0.66392651  1
  Li  Li8  1  0.25000000  0.75316401  0.35699200  1
  Li  Li9  1  0.75000000  0.74683599  0.85699200  1
  Li  Li10  1  0.75000000  0.24683599  0.64300800  1
  Li  Li11  1  0.25000000  0.25316401  0.14300800  1
