# generated using pymatgen
data_H4He3
_symmetry_space_group_name_H-M   'P 1'
_cell_length_a   7.65937176
_cell_length_b   7.65931178
_cell_length_c   2.92521588
_cell_angle_alpha   90.00000000
_cell_angle_beta   90.00000000
_cell_angle_gamma   119.99944987
_symmetry_Int_Tables_number   1
_chemical_formula_structural   H4He3
_chemical_formula_sum   'H8 He6'
_cell_volume   148.61883699
_cell_formula_units_Z   2
loop_
 _symmetry_equiv_pos_site_id
 _symmetry_equiv_pos_as_xyz
  1  'x, y, z'
loop_
 _atom_site_type_symbol
 _atom_site_label
 _atom_site_symmetry_multiplicity
 _atom_site_fract_x
 _atom_site_fract_y
 _atom_site_fract_z
 _atom_site_occupancy
  H  H0  1  0.03093699  0.33015907  0.27193204  1
  H  H1  1  0.66983103  0.70076522  0.27193199  1
  H  H2  1  0.29922059  0.96906788  0.27193233  1
  H  H3  1  0.96906301  0.66984093  0.77193204  1
  H  H4  1  0.33016897  0.29923478  0.77193199  1
  H  H5  1  0.70077941  0.03093212  0.77193233  1
  H  H6  1  0.66666783  0.33333262  0.27118768  1
  H  H7  1  0.33333217  0.66666738  0.77118768  1
  He  He8  1  0.76903156  0.17518929  0.27200555  1
  He  He9  1  0.82480831  0.59383475  0.27200527  1
  He  He10  1  0.40616634  0.23097458  0.27200514  1
  He  He11  1  0.23096844  0.82481071  0.77200555  1
  He  He12  1  0.17519169  0.40616525  0.77200527  1
  He  He13  1  0.59383366  0.76902542  0.77200514  1
