# generated using pymatgen
data_HHe2
_symmetry_space_group_name_H-M   'P 1'
_cell_length_a   2.36302230
_cell_length_b   2.36302705
_cell_length_c   10.69415016
_cell_angle_alpha   90.00010390
_cell_angle_beta   90.00000000
_cell_angle_gamma   119.99993354
_symmetry_Int_Tables_number   1
_chemical_formula_structural   HHe2
_chemical_formula_sum   'H2 He4'
_cell_volume   51.71466485
_cell_formula_units_Z   2
loop_
 _symmetry_equiv_pos_site_id
 _symmetry_equiv_pos_as_xyz
  1  'x, y, z'
loop_
 _atom_site_type_symbol
 _atom_site_label
 _atom_site_symmetry_multiplicity
 _atom_site_fract_x
 _atom_site_fract_y
 _atom_site_fract_z
 _atom_site_occupancy
  H  H0  1  0.00000645  0.00000456  0.07382507  1
  H  H1  1  0.00000189  -0.00000456  0.92617493  1
  He  He2  1  0.66666054  0.33333109  0.53310859  1
  He  He3  1  0.33332945  0.66666891  0.46689141  1
  He  He4  1  0.66665369  0.33332572  0.12171075  1
  He  He5  1  0.33332797  0.66667428  0.87828925  1
