# generated using pymatgen
data_H4He15Li2
_symmetry_space_group_name_H-M   'P 1'
_cell_length_a   9.73424085
_cell_length_b   6.97719236
_cell_length_c   10.81662689
_cell_angle_alpha   75.06639598
_cell_angle_beta   90.00000000
_cell_angle_gamma   90.00000000
_symmetry_Int_Tables_number   1
_chemical_formula_structural   H4He15Li2
_chemical_formula_sum   'H8 He30 Li4'
_cell_volume   709.82771231
_cell_formula_units_Z   2
loop_
 _symmetry_equiv_pos_site_id
 _symmetry_equiv_pos_as_xyz
  1  'x, y, z'
loop_
 _atom_site_type_symbol
 _atom_site_label
 _atom_site_symmetry_multiplicity
 _atom_site_fract_x
 _atom_site_fract_y
 _atom_site_fract_z
 _atom_site_occupancy
  H  H0  1  0.40743048  0.38154505  0.65586063  1
  H  H1  1  0.90743048  0.61845495  0.84413937  1
  H  H2  1  0.59256952  0.61845495  0.34413937  1
  H  H3  1  0.09256952  0.38154505  0.15586063  1
  H  H4  1  0.75672014  0.07961635  0.49041864  1
  H  H5  1  0.25672014  0.92038365  0.00958136  1
  H  H6  1  0.24327986  0.92038365  0.50958136  1
  H  H7  1  0.74327986  0.07961635  0.99041864  1
  He  He8  1  0.50000000  0.50000000  0.50000000  1
  He  He9  1  0.00000000  0.50000000  -0.00000000  1
  He  He10  1  0.63670070  0.23876596  0.38322583  1
  He  He11  1  0.13670070  0.76123404  0.11677417  1
  He  He12  1  0.36329930  0.76123404  0.61677417  1
  He  He13  1  0.86329930  0.23876596  0.88322583  1
  He  He14  1  0.22575276  0.38476383  0.65118072  1
  He  He15  1  0.72575276  0.61523617  0.84881928  1
  He  He16  1  0.77424724  0.61523617  0.34881928  1
  He  He17  1  0.27424724  0.38476383  0.15118072  1
  He  He18  1  0.84887251  0.21756466  0.58180658  1
  He  He19  1  0.34887251  0.78243534  0.91819342  1
  He  He20  1  0.15112749  0.78243534  0.41819342  1
  He  He21  1  0.65112749  0.21756466  0.08180658  1
  He  He22  1  0.45011020  0.12736809  0.68577715  1
  He  He23  1  0.95011020  0.87263191  0.81422285  1
  He  He24  1  0.54988980  0.87263191  0.31422285  1
  He  He25  1  0.04988980  0.12736809  0.18577715  1
  He  He26  1  0.87244090  0.97145866  0.40047242  1
  He  He27  1  0.37244090  0.02854134  0.09952758  1
  He  He28  1  0.12755910  0.02854134  0.59952758  1
  He  He29  1  0.62755910  0.97145866  0.90047242  1
  He  He30  1  0.47407292  0.45702283  0.78862952  1
  He  He31  1  0.97407292  0.54297717  0.71137048  1
  He  He32  1  0.52592708  0.54297717  0.21137048  1
  He  He33  1  0.02592708  0.45702283  0.28862952  1
  He  He34  1  0.66492999  0.88578592  0.59992089  1
  He  He35  1  0.16492999  0.11421408  0.90007911  1
  He  He36  1  0.33507001  0.11421408  0.40007911  1
  He  He37  1  0.83507001  0.88578592  0.09992089  1
  Li  Li38  1  0.02380566  0.20728326  0.72468157  1
  Li  Li39  1  0.52380566  0.79271674  0.77531843  1
  Li  Li40  1  0.97619434  0.79271674  0.27531843  1
  Li  Li41  1  0.47619434  0.20728326  0.22468157  1
