# generated using pymatgen
data_HHe2Li3
_symmetry_space_group_name_H-M   'P 1'
_cell_length_a   8.96086860
_cell_length_b   8.96086860
_cell_length_c   6.45438576
_cell_angle_alpha   90.00000000
_cell_angle_beta   90.00000000
_cell_angle_gamma   90.00000000
_symmetry_Int_Tables_number   1
_chemical_formula_structural   HHe2Li3
_chemical_formula_sum   'H4 He8 Li12'
_cell_volume   518.26888490
_cell_formula_units_Z   4
loop_
 _symmetry_equiv_pos_site_id
 _symmetry_equiv_pos_as_xyz
  1  'x, y, z'
loop_
 _atom_site_type_symbol
 _atom_site_label
 _atom_site_symmetry_multiplicity
 _atom_site_fract_x
 _atom_site_fract_y
 _atom_site_fract_z
 _atom_site_occupancy
  H  H0  1  0.75000000  0.25000000  -0.00000000  1
  H  H1  1  0.25000000  0.75000000  0.00000000  1
  H  H2  1  0.25000000  0.25000000  0.32458962  1
  H  H3  1  0.75000000  0.75000000  0.67541038  1
  He  He4  1  0.78642152  0.43563180  0.19093374  1
  He  He5  1  0.71357848  0.06436820  0.19093374  1
  He  He6  1  0.06436820  0.78642152  0.19093374  1
  He  He7  1  0.43563180  0.71357848  0.19093374  1
  He  He8  1  0.21357848  0.56436820  0.80906626  1
  He  He9  1  0.28642152  0.93563180  0.80906626  1
  He  He10  1  0.93563180  0.21357848  0.80906626  1
  He  He11  1  0.56436820  0.28642152  0.80906626  1
  Li  Li12  1  0.25000000  0.25000000  0.05113328  1
  Li  Li13  1  0.75000000  0.75000000  0.94886672  1
  Li  Li14  1  0.06338877  0.18214835  0.32659833  1
  Li  Li15  1  0.43661123  0.31785165  0.32659833  1
  Li  Li16  1  0.31785165  0.06338877  0.32659833  1
  Li  Li17  1  0.18214835  0.43661123  0.32659833  1
  Li  Li18  1  0.93661123  0.81785165  0.67340167  1
  Li  Li19  1  0.56338877  0.68214835  0.67340167  1
  Li  Li20  1  0.68214835  0.93661123  0.67340167  1
  Li  Li21  1  0.81785165  0.56338877  0.67340167  1
  Li  Li22  1  0.25000000  0.25000000  0.60161226  1
  Li  Li23  1  0.75000000  0.75000000  0.39838774  1
