# generated using pymatgen
data_HHe4LiBe2
_symmetry_space_group_name_H-M   'P 1'
_cell_length_a   10.46941944
_cell_length_b   6.63945945
_cell_length_c   6.80212491
_cell_angle_alpha   66.54864314
_cell_angle_beta   90.00000000
_cell_angle_gamma   90.00000000
_symmetry_Int_Tables_number   1
_chemical_formula_structural   HHe4LiBe2
_chemical_formula_sum   'H4 He16 Li4 Be8'
_cell_volume   433.76833356
_cell_formula_units_Z   4
loop_
 _symmetry_equiv_pos_site_id
 _symmetry_equiv_pos_as_xyz
  1  'x, y, z'
loop_
 _atom_site_type_symbol
 _atom_site_label
 _atom_site_symmetry_multiplicity
 _atom_site_fract_x
 _atom_site_fract_y
 _atom_site_fract_z
 _atom_site_occupancy
  H  H0  1  0.11414455  0.70061509  0.20972809  1
  H  H1  1  0.61414455  0.29938491  0.29027191  1
  H  H2  1  0.88585545  0.29938491  0.79027191  1
  H  H3  1  0.38585545  0.70061509  0.70972809  1
  He  He4  1  0.40214754  0.22546152  0.22276597  1
  He  He5  1  0.90214754  0.77453848  0.27723403  1
  He  He6  1  0.59785246  0.77453848  0.77723403  1
  He  He7  1  0.09785246  0.22546152  0.72276597  1
  He  He8  1  0.28948478  0.35871041  0.08457901  1
  He  He9  1  0.78948478  0.64128959  0.41542099  1
  He  He10  1  0.71051522  0.64128959  0.91542099  1
  He  He11  1  0.21051522  0.35871041  0.58457901  1
  He  He12  1  0.51576217  0.63511024  0.23505859  1
  He  He13  1  0.01576217  0.36488976  0.26494141  1
  He  He14  1  0.48423783  0.36488976  0.76494141  1
  He  He15  1  0.98423783  0.63511024  0.73505859  1
  He  He16  1  0.46250280  0.76511544  0.36520963  1
  He  He17  1  0.96250280  0.23488456  0.13479037  1
  He  He18  1  0.53749720  0.23488456  0.63479037  1
  He  He19  1  0.03749720  0.76511544  0.86520963  1
  Li  Li20  1  0.16750829  0.98644281  0.45678752  1
  Li  Li21  1  0.66750829  0.01355719  0.04321248  1
  Li  Li22  1  0.83249171  0.01355719  0.54321248  1
  Li  Li23  1  0.33249171  0.98644281  0.95678752  1
  Be  Be24  1  0.31427407  0.20860431  0.17796783  1
  Be  Be25  1  0.81427407  0.79139569  0.32203217  1
  Be  Be26  1  0.68572593  0.79139569  0.82203217  1
  Be  Be27  1  0.18572593  0.20860431  0.67796783  1
  Be  Be28  1  0.48917994  0.78330751  0.21976860  1
  Be  Be29  1  0.98917994  0.21669249  0.28023140  1
  Be  Be30  1  0.51082006  0.21669249  0.78023140  1
  Be  Be31  1  0.01082006  0.78330751  0.71976860  1
