# generated using pymatgen
data_HHe(Li2Be)3
_symmetry_space_group_name_H-M   'P 1'
_cell_length_a   6.74394367
_cell_length_b   6.74394367
_cell_length_c   6.74394367
_cell_angle_alpha   92.35649282
_cell_angle_beta   92.35649282
_cell_angle_gamma   92.35649282
_symmetry_Int_Tables_number   1
_chemical_formula_structural   HHe(Li2Be)3
_chemical_formula_sum   'H2 He2 Li12 Be6'
_cell_volume   305.91961478
_cell_formula_units_Z   2
loop_
 _symmetry_equiv_pos_site_id
 _symmetry_equiv_pos_as_xyz
  1  'x, y, z'
loop_
 _atom_site_type_symbol
 _atom_site_label
 _atom_site_symmetry_multiplicity
 _atom_site_fract_x
 _atom_site_fract_y
 _atom_site_fract_z
 _atom_site_occupancy
  H  H0  1  0.00000000  0.00000000  0.00000000  1
  H  H1  1  0.50000000  0.50000000  0.50000000  1
  He  He2  1  0.25000000  0.25000000  0.25000000  1
  He  He3  1  0.75000000  0.75000000  0.75000000  1
  Li  Li4  1  0.96355316  0.09417675  0.28736826  1
  Li  Li5  1  0.28736826  0.96355316  0.09417675  1
  Li  Li6  1  0.09417675  0.28736826  0.96355316  1
  Li  Li7  1  0.53644684  0.21263174  0.40582325  1
  Li  Li8  1  0.21263174  0.40582325  0.53644684  1
  Li  Li9  1  0.40582325  0.53644684  0.21263174  1
  Li  Li10  1  0.03644684  0.90582325  0.71263174  1
  Li  Li11  1  0.71263174  0.03644684  0.90582325  1
  Li  Li12  1  0.90582325  0.71263174  0.03644684  1
  Li  Li13  1  0.46355316  0.78736826  0.59417675  1
  Li  Li14  1  0.78736826  0.59417675  0.46355316  1
  Li  Li15  1  0.59417675  0.46355316  0.78736826  1
  Be  Be16  1  0.88604588  0.25000000  0.61395412  1
  Be  Be17  1  0.61395412  0.88604588  0.25000000  1
  Be  Be18  1  0.25000000  0.61395412  0.88604588  1
  Be  Be19  1  0.11395412  0.75000000  0.38604588  1
  Be  Be20  1  0.38604588  0.11395412  0.75000000  1
  Be  Be21  1  0.75000000  0.38604588  0.11395412  1
