# generated using pymatgen
data_H10He5Li4
_symmetry_space_group_name_H-M   'P 1'
_cell_length_a   13.02035562
_cell_length_b   13.02035562
_cell_length_c   4.28448243
_cell_angle_alpha   90.00000000
_cell_angle_beta   90.00000000
_cell_angle_gamma   90.00000000
_symmetry_Int_Tables_number   1
_chemical_formula_structural   H10He5Li4
_chemical_formula_sum   'H20 He10 Li8'
_cell_volume   726.34685122
_cell_formula_units_Z   2
loop_
 _symmetry_equiv_pos_site_id
 _symmetry_equiv_pos_as_xyz
  1  'x, y, z'
loop_
 _atom_site_type_symbol
 _atom_site_label
 _atom_site_symmetry_multiplicity
 _atom_site_fract_x
 _atom_site_fract_y
 _atom_site_fract_z
 _atom_site_occupancy
  H  H0  1  0.15819278  0.00215943  0.50000000  1
  H  H1  1  0.84180722  0.99784057  0.50000000  1
  H  H2  1  0.99784057  0.15819278  0.50000000  1
  H  H3  1  0.00215943  0.84180722  0.50000000  1
  H  H4  1  0.34180722  0.50215943  0.50000000  1
  H  H5  1  0.65819278  0.49784057  0.50000000  1
  H  H6  1  0.50215943  0.65819278  0.50000000  1
  H  H7  1  0.49784057  0.34180722  0.50000000  1
  H  H8  1  0.16171311  0.20023108  -0.00000000  1
  H  H9  1  0.83828689  0.79976892  0.00000000  1
  H  H10  1  0.79976892  0.16171311  0.00000000  1
  H  H11  1  0.20023108  0.83828689  0.00000000  1
  H  H12  1  0.33828689  0.70023108  -0.00000000  1
  H  H13  1  0.66171311  0.29976892  -0.00000000  1
  H  H14  1  0.70023108  0.66171311  -0.00000000  1
  H  H15  1  0.29976892  0.33828689  -0.00000000  1
  H  H16  1  0.06697387  0.56697387  0.00000000  1
  H  H17  1  0.93302613  0.43302613  -0.00000000  1
  H  H18  1  0.43302613  0.06697387  0.00000000  1
  H  H19  1  0.56697387  0.93302613  -0.00000000  1
  He  He20  1  0.17459650  0.67459650  0.50000000  1
  He  He21  1  0.82540350  0.32540350  0.50000000  1
  He  He22  1  0.32540350  0.17459650  0.50000000  1
  He  He23  1  0.67459650  0.82540350  0.50000000  1
  He  He24  1  0.61267870  0.11267870  0.50000000  1
  He  He25  1  0.38732130  0.88732130  0.50000000  1
  He  He26  1  0.88732130  0.61267870  0.50000000  1
  He  He27  1  0.11267870  0.38732130  0.50000000  1
  He  He28  1  -0.00000000  0.00000000  0.00000000  1
  He  He29  1  0.50000000  0.50000000  -0.00000000  1
  Li  Li30  1  0.24560738  0.02132454  -0.00000000  1
  Li  Li31  1  0.75439262  0.97867546  0.00000000  1
  Li  Li32  1  0.97867546  0.24560738  -0.00000000  1
  Li  Li33  1  0.02132454  0.75439262  0.00000000  1
  Li  Li34  1  0.25439262  0.52132454  -0.00000000  1
  Li  Li35  1  0.74560738  0.47867546  0.00000000  1
  Li  Li36  1  0.52132454  0.74560738  0.00000000  1
  Li  Li37  1  0.47867546  0.25439262  -0.00000000  1
