# generated using pymatgen
data_HHe2Li2
_symmetry_space_group_name_H-M   'P 1'
_cell_length_a   5.60210896
_cell_length_b   5.60210896
_cell_length_c   5.60210896
_cell_angle_alpha   136.52671242
_cell_angle_beta   136.52671242
_cell_angle_gamma   63.16707224
_symmetry_Int_Tables_number   1
_chemical_formula_structural   HHe2Li2
_chemical_formula_sum   'H1 He2 Li2'
_cell_volume   82.16657080
_cell_formula_units_Z   1
loop_
 _symmetry_equiv_pos_site_id
 _symmetry_equiv_pos_as_xyz
  1  'x, y, z'
loop_
 _atom_site_type_symbol
 _atom_site_label
 _atom_site_symmetry_multiplicity
 _atom_site_fract_x
 _atom_site_fract_y
 _atom_site_fract_z
 _atom_site_occupancy
  H  H0  1  0.00000000  0.00000000  0.00000000  1
  He  He1  1  0.75000000  0.25000000  0.50000000  1
  He  He2  1  0.25000000  0.75000000  0.50000000  1
  Li  Li3  1  0.63431355  0.63431355  0.00000000  1
  Li  Li4  1  0.36568645  0.36568645  -0.00000000  1
