# generated using pymatgen
data_H8HeLi12Be2B
_symmetry_space_group_name_H-M   'P 1'
_cell_length_a   5.31526634
_cell_length_b   9.53407303
_cell_length_c   9.75656506
_cell_angle_alpha   96.66966385
_cell_angle_beta   92.60348673
_cell_angle_gamma   90.57289618
_symmetry_Int_Tables_number   1
_chemical_formula_structural   H8HeLi12Be2B
_chemical_formula_sum   'H16 He2 Li24 Be4 B2'
_cell_volume   490.51388165
_cell_formula_units_Z   2
loop_
 _symmetry_equiv_pos_site_id
 _symmetry_equiv_pos_as_xyz
  1  'x, y, z'
loop_
 _atom_site_type_symbol
 _atom_site_label
 _atom_site_symmetry_multiplicity
 _atom_site_fract_x
 _atom_site_fract_y
 _atom_site_fract_z
 _atom_site_occupancy
  H  H0  1  0.45022735  0.90996293  0.87519707  1
  H  H1  1  0.54977265  0.09003707  0.12480293  1
  H  H2  1  0.19628133  0.84390552  0.80208886  1
  H  H3  1  0.80371867  0.15609448  0.19791114  1
  H  H4  1  0.14975247  0.25741231  0.95696430  1
  H  H5  1  0.85024753  0.74258769  0.04303570  1
  H  H6  1  0.04710221  0.17707674  0.81298957  1
  H  H7  1  0.95289779  0.82292326  0.18701043  1
  H  H8  1  0.05055025  0.44245912  0.12866318  1
  H  H9  1  0.94944975  0.55754088  0.87133682  1
  H  H10  1  0.26628680  0.34743119  0.18535109  1
  H  H11  1  0.73371320  0.65256881  0.81464891  1
  H  H12  1  0.32498117  0.76025965  0.01349599  1
  H  H13  1  0.67501883  0.23974035  0.98650401  1
  H  H14  1  0.40500069  0.72105027  0.16719705  1
  H  H15  1  0.59499931  0.27894973  0.83280295  1
  He  He16  1  0.00000000  -0.00000000  -0.00000000  1
  He  He17  1  0.50000000  0.50000000  -0.00000000  1
  Li  Li18  1  0.33337450  0.58763375  0.61475120  1
  Li  Li19  1  0.66662550  0.41236625  0.38524880  1
  Li  Li20  1  0.23819658  0.48708032  0.83444323  1
  Li  Li21  1  0.76180342  0.51291968  0.16555677  1
  Li  Li22  1  0.49625452  0.34584725  0.65671558  1
  Li  Li23  1  0.50374548  0.65415275  0.34328442  1
  Li  Li24  1  0.03417122  0.37658352  0.60828788  1
  Li  Li25  1  0.96582878  0.62341648  0.39171212  1
  Li  Li26  1  0.98576389  0.15400545  0.35841188  1
  Li  Li27  1  0.01423611  0.84599455  0.64158812  1
  Li  Li28  1  0.25580716  0.05547273  0.16656616  1
  Li  Li29  1  0.74419284  0.94452727  0.83343384  1
  Li  Li30  1  0.45367902  0.12875808  0.40536558  1
  Li  Li31  1  0.54632098  0.87124192  0.59463442  1
  Li  Li32  1  0.17271564  0.90871866  0.36039056  1
  Li  Li33  1  0.82728436  0.09128134  0.63960944  1
  Li  Li34  1  0.27781887  0.87344197  0.89469712  1
  Li  Li35  1  0.72218113  0.12655803  0.10530288  1
  Li  Li36  1  0.13752357  0.16431638  0.90037198  1
  Li  Li37  1  0.86247643  0.83568362  0.09962802  1
  Li  Li38  1  0.21249141  0.39315842  0.10493962  1
  Li  Li39  1  0.78750859  0.60684158  0.89506038  1
  Li  Li40  1  0.34075810  0.68365879  0.07430570  1
  Li  Li41  1  0.65924190  0.31634121  0.92569430  1
  Be  Be42  1  0.27436998  0.45044176  0.67922458  1
  Be  Be43  1  0.72563002  0.54955824  0.32077542  1
  Be  Be44  1  0.21997352  0.06110857  0.32293601  1
  Be  Be45  1  0.78002648  0.93889143  0.67706399  1
  B  B46  1  0.25614334  0.74745499  0.48966559  1
  B  B47  1  0.74385666  0.25254501  0.51033441  1
