# generated using pymatgen
data_H5HeLi2
_symmetry_space_group_name_H-M   'P 1'
_cell_length_a   9.66574775
_cell_length_b   9.66574775
_cell_length_c   9.66574775
_cell_angle_alpha   129.64239071
_cell_angle_beta   129.64239071
_cell_angle_gamma   73.97911252
_symmetry_Int_Tables_number   1
_chemical_formula_structural   H5HeLi2
_chemical_formula_sum   'H10 He2 Li4'
_cell_volume   522.22845401
_cell_formula_units_Z   2
loop_
 _symmetry_equiv_pos_site_id
 _symmetry_equiv_pos_as_xyz
  1  'x, y, z'
loop_
 _atom_site_type_symbol
 _atom_site_label
 _atom_site_symmetry_multiplicity
 _atom_site_fract_x
 _atom_site_fract_y
 _atom_site_fract_z
 _atom_site_occupancy
  H  H0  1  0.72450646  0.22450646  0.19150210  1
  H  H1  1  0.03300436  0.53300436  0.80849790  1
  H  H2  1  0.53300436  0.72450646  0.50000000  1
  H  H3  1  0.22450646  0.03300436  0.50000000  1
  H  H4  1  0.46699564  0.27549354  0.50000000  1
  H  H5  1  0.77549354  0.96699564  0.50000000  1
  H  H6  1  0.27549354  0.77549354  0.80849790  1
  H  H7  1  0.96699564  0.46699564  0.19150210  1
  H  H8  1  0.00000000  -0.00000000  0.00000000  1
  H  H9  1  0.50000000  0.50000000  -0.00000000  1
  He  He10  1  0.75000000  0.75000000  -0.00000000  1
  He  He11  1  0.25000000  0.25000000  -0.00000000  1
  Li  Li12  1  0.66891205  0.16891205  0.83782411  1
  Li  Li13  1  0.33108795  0.83108795  0.16217589  1
  Li  Li14  1  0.83108795  0.66891205  0.50000000  1
  Li  Li15  1  0.16891205  0.33108795  0.50000000  1
