# generated using pymatgen
data_H3He35Li5Be7
_symmetry_space_group_name_H-M   'P 1'
_cell_length_a   10.13211132
_cell_length_b   10.13211132
_cell_length_c   14.95802875
_cell_angle_alpha   90.00000000
_cell_angle_beta   90.00000000
_cell_angle_gamma   90.00000000
_symmetry_Int_Tables_number   1
_chemical_formula_structural   H3He35Li5Be7
_chemical_formula_sum   'H6 He70 Li10 Be14'
_cell_volume   1535.58644297
_cell_formula_units_Z   2
loop_
 _symmetry_equiv_pos_site_id
 _symmetry_equiv_pos_as_xyz
  1  'x, y, z'
loop_
 _atom_site_type_symbol
 _atom_site_label
 _atom_site_symmetry_multiplicity
 _atom_site_fract_x
 _atom_site_fract_y
 _atom_site_fract_z
 _atom_site_occupancy
  H  H0  1  0.25731516  0.24268484  0.10676000  1
  H  H1  1  0.74268484  0.75731516  0.10676000  1
  H  H2  1  0.24268484  0.74268484  0.89324000  1
  H  H3  1  0.75731516  0.25731516  0.89324000  1
  H  H4  1  -0.00000000  0.50000000  0.31704442  1
  H  H5  1  0.50000000  -0.00000000  0.68295558  1
  He  He6  1  0.33563206  0.83563206  0.00001732  1
  He  He7  1  0.66436794  0.16436794  0.00001732  1
  He  He8  1  0.83563206  0.66436794  -0.00001732  1
  He  He9  1  0.16436794  0.33563206  -0.00001732  1
  He  He10  1  0.16506667  0.66506667  0.00901195  1
  He  He11  1  0.83493333  0.33493333  0.00901195  1
  He  He12  1  0.66506667  0.83493333  0.99098805  1
  He  He13  1  0.33493333  0.16506667  0.99098805  1
  He  He14  1  0.58631409  0.08631409  0.57274018  1
  He  He15  1  0.41368591  0.91368591  0.57274018  1
  He  He16  1  0.08631409  0.41368591  0.42725982  1
  He  He17  1  0.91368591  0.58631409  0.42725982  1
  He  He18  1  0.08855128  0.91924162  0.29642639  1
  He  He19  1  0.91144872  0.08075838  0.29642639  1
  He  He20  1  0.91924162  0.91144872  0.70357361  1
  He  He21  1  0.08075838  0.08855128  0.70357361  1
  He  He22  1  0.41144872  0.41924162  0.70357361  1
  He  He23  1  0.58855128  0.58075838  0.70357361  1
  He  He24  1  0.58075838  0.41144872  0.29642639  1
  He  He25  1  0.41924162  0.58855128  0.29642639  1
  He  He26  1  0.34088237  0.67430622  0.13387615  1
  He  He27  1  0.65911763  0.32569378  0.13387615  1
  He  He28  1  0.67430622  0.65911763  0.86612385  1
  He  He29  1  0.32569378  0.34088237  0.86612385  1
  He  He30  1  0.15911763  0.17430622  0.86612385  1
  He  He31  1  0.84088237  0.82569378  0.86612385  1
  He  He32  1  0.82569378  0.15911763  0.13387615  1
  He  He33  1  0.17430622  0.84088237  0.13387615  1
  He  He34  1  0.24211102  0.74211102  0.68787912  1
  He  He35  1  0.75788898  0.25788898  0.68787912  1
  He  He36  1  0.74211102  0.75788898  0.31212088  1
  He  He37  1  0.25788898  0.24211102  0.31212088  1
  He  He38  1  0.91482682  0.90718203  0.42013700  1
  He  He39  1  0.08517318  0.09281797  0.42013700  1
  He  He40  1  0.90718203  0.08517318  0.57986300  1
  He  He41  1  0.09281797  0.91482682  0.57986300  1
  He  He42  1  0.58517318  0.40718203  0.57986300  1
  He  He43  1  0.41482682  0.59281797  0.57986300  1
  He  He44  1  0.59281797  0.58517318  0.42013700  1
  He  He45  1  0.40718203  0.41482682  0.42013700  1
  He  He46  1  0.58900790  0.91099210  0.44966326  1
  He  He47  1  0.41099210  0.08900790  0.44966326  1
  He  He48  1  0.91099210  0.41099210  0.55033674  1
  He  He49  1  0.08900790  0.58900790  0.55033674  1
  He  He50  1  0.00000000  0.50000000  0.12743428  1
  He  He51  1  0.50000000  -0.00000000  0.87256572  1
  He  He52  1  0.25797341  0.75797341  0.44523570  1
  He  He53  1  0.74202659  0.24202659  0.44523570  1
  He  He54  1  0.75797341  0.74202659  0.55476430  1
  He  He55  1  0.24202659  0.25797341  0.55476430  1
  He  He56  1  0.00000000  0.50000000  0.89002875  1
  He  He57  1  0.50000000  -0.00000000  0.10997125  1
  He  He58  1  0.38132159  0.88132159  0.28269005  1
  He  He59  1  0.61867841  0.11867841  0.28269005  1
  He  He60  1  0.88132159  0.61867841  0.71730995  1
  He  He61  1  0.11867841  0.38132159  0.71730995  1
  He  He62  1  0.12010992  0.13167170  0.14761019  1
  He  He63  1  0.87989008  0.86832830  0.14761019  1
  He  He64  1  0.13167170  0.87989008  0.85238981  1
  He  He65  1  0.86832830  0.12010992  0.85238981  1
  He  He66  1  0.37989008  0.63167170  0.85238981  1
  He  He67  1  0.62010992  0.36832830  0.85238981  1
  He  He68  1  0.36832830  0.37989008  0.14761019  1
  He  He69  1  0.63167170  0.62010992  0.14761019  1
  He  He70  1  0.13377220  0.63377220  0.28167376  1
  He  He71  1  0.86622780  0.36622780  0.28167376  1
  He  He72  1  0.63377220  0.86622780  0.71832624  1
  He  He73  1  0.36622780  0.13377220  0.71832624  1
  He  He74  1  0.00000000  -0.00000000  0.00000000  1
  He  He75  1  0.50000000  0.50000000  0.00000000  1
  Li  Li76  1  -0.00000000  0.00000000  0.36349807  1
  Li  Li77  1  -0.00000000  0.00000000  0.63650193  1
  Li  Li78  1  0.50000000  0.50000000  0.63650193  1
  Li  Li79  1  0.50000000  0.50000000  0.36349807  1
  Li  Li80  1  0.25406597  0.75406597  0.06733302  1
  Li  Li81  1  0.74593403  0.24593403  0.06733302  1
  Li  Li82  1  0.75406597  0.74593403  0.93266698  1
  Li  Li83  1  0.24593403  0.25406597  0.93266698  1
  Li  Li84  1  0.50000000  0.00000000  0.50768028  1
  Li  Li85  1  -0.00000000  0.50000000  0.49231972  1
  Be  Be86  1  0.00000000  0.50000000  0.00834534  1
  Be  Be87  1  0.50000000  0.00000000  0.99165466  1
  Be  Be88  1  -0.00000000  0.00000000  0.14462634  1
  Be  Be89  1  -0.00000000  0.00000000  0.85537366  1
  Be  Be90  1  0.50000000  0.50000000  0.85537366  1
  Be  Be91  1  0.50000000  0.50000000  0.14462634  1
  Be  Be92  1  0.25862479  0.75862479  0.28232020  1
  Be  Be93  1  0.74137521  0.24137521  0.28232020  1
  Be  Be94  1  0.75862479  0.74137521  0.71767980  1
  Be  Be95  1  0.24137521  0.25862479  0.71767980  1
  Be  Be96  1  0.24886962  0.74886962  0.56889399  1
  Be  Be97  1  0.75113038  0.25113038  0.56889399  1
  Be  Be98  1  0.74886962  0.75113038  0.43110601  1
  Be  Be99  1  0.25113038  0.24886962  0.43110601  1
