# generated using pymatgen
data_HHeLi5
_symmetry_space_group_name_H-M   'P 1'
_cell_length_a   11.13043651
_cell_length_b   11.13043651
_cell_length_c   11.13043651
_cell_angle_alpha   131.02716343
_cell_angle_beta   118.26286657
_cell_angle_gamma   82.53420838
_symmetry_Int_Tables_number   1
_chemical_formula_structural   HHeLi5
_chemical_formula_sum   'H4 He4 Li20'
_cell_volume   881.62955223
_cell_formula_units_Z   4
loop_
 _symmetry_equiv_pos_site_id
 _symmetry_equiv_pos_as_xyz
  1  'x, y, z'
loop_
 _atom_site_type_symbol
 _atom_site_label
 _atom_site_symmetry_multiplicity
 _atom_site_fract_x
 _atom_site_fract_y
 _atom_site_fract_z
 _atom_site_occupancy
  H  H0  1  0.11987261  0.25000000  0.86987261  1
  H  H1  1  0.38012739  0.25000000  0.13012739  1
  H  H2  1  0.88012739  0.75000000  0.13012739  1
  H  H3  1  0.61987261  0.75000000  0.86987261  1
  He  He4  1  0.25000000  0.75000000  0.50000000  1
  He  He5  1  0.75000000  0.25000000  0.50000000  1
  He  He6  1  0.00000000  0.00000000  -0.00000000  1
  He  He7  1  0.50000000  0.50000000  0.00000000  1
  Li  Li8  1  0.22068445  0.14285493  0.67231264  1
  Li  Li9  1  0.47054229  0.54837181  0.32768736  1
  Li  Li10  1  0.02945771  0.35714507  0.07782952  1
  Li  Li11  1  0.27931555  0.95162819  0.92217048  1
  Li  Li12  1  0.77931555  0.85714507  0.32768736  1
  Li  Li13  1  0.52945771  0.45162819  0.67231264  1
  Li  Li14  1  0.97054229  0.64285493  0.92217048  1
  Li  Li15  1  0.72068445  0.04837181  0.07782952  1
  Li  Li16  1  0.94016566  0.83925409  0.55017725  1
  Li  Li17  1  0.28907684  0.38998840  0.44982275  1
  Li  Li18  1  0.21092316  0.66074591  0.10091157  1
  Li  Li19  1  0.55983434  0.11001160  0.89908843  1
  Li  Li20  1  0.05983434  0.16074591  0.44982275  1
  Li  Li21  1  0.71092316  0.61001160  0.55017725  1
  Li  Li22  1  0.78907684  0.33925409  0.89908843  1
  Li  Li23  1  0.44016566  0.88998840  0.10091157  1
  Li  Li24  1  0.64906137  0.07512041  0.72418178  1
  Li  Li25  1  0.35093863  0.92487959  0.27581822  1
  Li  Li26  1  0.14906137  0.42487959  0.57394096  1
  Li  Li27  1  0.85093863  0.57512041  0.42605904  1
