# generated using pymatgen
data_H7HeLi2Be
_symmetry_space_group_name_H-M   'P 1'
_cell_length_a   8.69704564
_cell_length_b   11.74826655
_cell_length_c   13.60495701
_cell_angle_alpha   90.00000000
_cell_angle_beta   90.00000000
_cell_angle_gamma   90.00000000
_symmetry_Int_Tables_number   1
_chemical_formula_structural   H7HeLi2Be
_chemical_formula_sum   'H56 He8 Li16 Be8'
_cell_volume   1390.08934528
_cell_formula_units_Z   8
loop_
 _symmetry_equiv_pos_site_id
 _symmetry_equiv_pos_as_xyz
  1  'x, y, z'
loop_
 _atom_site_type_symbol
 _atom_site_label
 _atom_site_symmetry_multiplicity
 _atom_site_fract_x
 _atom_site_fract_y
 _atom_site_fract_z
 _atom_site_occupancy
  H  H0  1  0.30625037  0.02935745  0.08147371  1
  H  H1  1  0.80625037  0.97064255  0.41852629  1
  H  H2  1  0.19374963  0.52935745  0.91852629  1
  H  H3  1  0.69374963  0.47064255  0.58147371  1
  H  H4  1  0.69374963  0.97064255  0.91852629  1
  H  H5  1  0.19374963  0.02935745  0.58147371  1
  H  H6  1  0.80625037  0.47064255  0.08147371  1
  H  H7  1  0.30625037  0.52935745  0.41852629  1
  H  H8  1  0.07563025  0.10741654  0.20025784  1
  H  H9  1  0.57563025  0.89258346  0.29974216  1
  H  H10  1  0.42436975  0.60741654  0.79974216  1
  H  H11  1  0.92436975  0.39258346  0.70025784  1
  H  H12  1  0.92436975  0.89258346  0.79974216  1
  H  H13  1  0.42436975  0.10741654  0.70025784  1
  H  H14  1  0.57563025  0.39258346  0.20025784  1
  H  H15  1  0.07563025  0.60741654  0.29974216  1
  H  H16  1  0.91715712  0.06258594  0.04400282  1
  H  H17  1  0.41715712  0.93741406  0.45599718  1
  H  H18  1  0.58284288  0.56258594  0.95599718  1
  H  H19  1  0.08284288  0.43741406  0.54400282  1
  H  H20  1  0.08284288  0.93741406  0.95599718  1
  H  H21  1  0.58284288  0.06258594  0.54400282  1
  H  H22  1  0.41715712  0.43741406  0.04400282  1
  H  H23  1  0.91715712  0.56258594  0.45599718  1
  H  H24  1  0.17168206  0.90692476  0.25268297  1
  H  H25  1  0.67168206  0.09307524  0.24731703  1
  H  H26  1  0.32831794  0.40692476  0.74731703  1
  H  H27  1  0.82831794  0.59307524  0.75268297  1
  H  H28  1  0.82831794  0.09307524  0.74731703  1
  H  H29  1  0.32831794  0.90692476  0.75268297  1
  H  H30  1  0.67168206  0.59307524  0.25268297  1
  H  H31  1  0.17168206  0.40692476  0.24731703  1
  H  H32  1  0.90465013  0.87074724  0.15433817  1
  H  H33  1  0.40465013  0.12925276  0.34566183  1
  H  H34  1  0.59534987  0.37074724  0.84566183  1
  H  H35  1  0.09534987  0.62925276  0.65433817  1
  H  H36  1  0.09534987  0.12925276  0.84566183  1
  H  H37  1  0.59534987  0.87074724  0.65433817  1
  H  H38  1  0.40465013  0.62925276  0.15433817  1
  H  H39  1  0.90465013  0.37074724  0.34566183  1
  H  H40  1  0.20362373  0.80251731  0.08308481  1
  H  H41  1  0.70362373  0.19748269  0.41691519  1
  H  H42  1  0.29637627  0.30251731  0.91691519  1
  H  H43  1  0.79637627  0.69748269  0.58308481  1
  H  H44  1  0.79637627  0.19748269  0.91691519  1
  H  H45  1  0.29637627  0.80251731  0.58308481  1
  H  H46  1  0.70362373  0.69748269  0.08308481  1
  H  H47  1  0.20362373  0.30251731  0.41691519  1
  H  H48  1  0.40863329  0.81575327  0.96823188  1
  H  H49  1  0.90863329  0.18424673  0.53176812  1
  H  H50  1  0.09136671  0.31575327  0.03176812  1
  H  H51  1  0.59136671  0.68424673  0.46823188  1
  H  H52  1  0.59136671  0.18424673  0.03176812  1
  H  H53  1  0.09136671  0.81575327  0.46823188  1
  H  H54  1  0.90863329  0.68424673  0.96823188  1
  H  H55  1  0.40863329  0.31575327  0.53176812  1
  He  He56  1  0.32320101  0.80764542  0.01861113  1
  He  He57  1  0.82320101  0.19235458  0.48138887  1
  He  He58  1  0.17679899  0.30764542  0.98138887  1
  He  He59  1  0.67679899  0.69235458  0.51861113  1
  He  He60  1  0.67679899  0.19235458  0.98138887  1
  He  He61  1  0.17679899  0.80764542  0.51861113  1
  He  He62  1  0.82320101  0.69235458  0.01861113  1
  He  He63  1  0.32320101  0.30764542  0.48138887  1
  Li  Li64  1  0.84956804  0.25877597  0.16954450  1
  Li  Li65  1  0.34956804  0.74122403  0.33045550  1
  Li  Li66  1  0.65043196  0.75877597  0.83045550  1
  Li  Li67  1  0.15043196  0.24122403  0.66954450  1
  Li  Li68  1  0.15043196  0.74122403  0.83045550  1
  Li  Li69  1  0.65043196  0.25877597  0.66954450  1
  Li  Li70  1  0.34956804  0.24122403  0.16954450  1
  Li  Li71  1  0.84956804  0.75877597  0.33045550  1
  Li  Li72  1  0.61411291  0.93185911  0.10663839  1
  Li  Li73  1  0.11411291  0.06814089  0.39336161  1
  Li  Li74  1  0.88588709  0.43185911  0.89336161  1
  Li  Li75  1  0.38588709  0.56814089  0.60663839  1
  Li  Li76  1  0.38588709  0.06814089  0.89336161  1
  Li  Li77  1  0.88588709  0.93185911  0.60663839  1
  Li  Li78  1  0.11411291  0.56814089  0.10663839  1
  Li  Li79  1  0.61411291  0.43185911  0.39336161  1
  Be  Be80  1  0.09515245  0.96050276  0.11852974  1
  Be  Be81  1  0.59515245  0.03949724  0.38147026  1
  Be  Be82  1  0.40484755  0.46050276  0.88147026  1
  Be  Be83  1  0.90484755  0.53949724  0.61852974  1
  Be  Be84  1  0.90484755  0.03949724  0.88147026  1
  Be  Be85  1  0.40484755  0.96050276  0.61852974  1
  Be  Be86  1  0.59515245  0.53949724  0.11852974  1
  Be  Be87  1  0.09515245  0.46050276  0.38147026  1
