# generated using pymatgen
data_H5HeLi3
_symmetry_space_group_name_H-M   'P 1'
_cell_length_a   5.51885197
_cell_length_b   5.51885197
_cell_length_c   10.41389214
_cell_angle_alpha   90.00000000
_cell_angle_beta   90.00000000
_cell_angle_gamma   136.50688002
_symmetry_Int_Tables_number   1
_chemical_formula_structural   H5HeLi3
_chemical_formula_sum   'H10 He2 Li6'
_cell_volume   218.30707418
_cell_formula_units_Z   2
loop_
 _symmetry_equiv_pos_site_id
 _symmetry_equiv_pos_as_xyz
  1  'x, y, z'
loop_
 _atom_site_type_symbol
 _atom_site_label
 _atom_site_symmetry_multiplicity
 _atom_site_fract_x
 _atom_site_fract_y
 _atom_site_fract_z
 _atom_site_occupancy
  H  H0  1  0.74716523  0.25283477  0.25000000  1
  H  H1  1  0.25283477  0.74716523  0.75000000  1
  H  H2  1  0.04575560  0.95424440  0.12106068  1
  H  H3  1  0.95424440  0.04575560  0.62106068  1
  H  H4  1  0.04575560  0.95424440  0.37893932  1
  H  H5  1  0.95424440  0.04575560  0.87893932  1
  H  H6  1  0.32131191  0.67868809  0.07928635  1
  H  H7  1  0.67868809  0.32131191  0.57928635  1
  H  H8  1  0.32131191  0.67868809  0.42071365  1
  H  H9  1  0.67868809  0.32131191  0.92071365  1
  He  He10  1  0.50328811  0.49671189  0.75000000  1
  He  He11  1  0.49671189  0.50328811  0.25000000  1
  Li  Li12  1  0.20218507  0.79781493  0.25000000  1
  Li  Li13  1  0.79781493  0.20218507  0.75000000  1
  Li  Li14  1  0.14240713  0.85759287  0.54906255  1
  Li  Li15  1  0.85759287  0.14240713  0.04906255  1
  Li  Li16  1  0.14240713  0.85759287  0.95093745  1
  Li  Li17  1  0.85759287  0.14240713  0.45093745  1
