# generated using pymatgen
data_H2He
_symmetry_space_group_name_H-M   'P 1'
_cell_length_a   5.15356700
_cell_length_b   5.32521283
_cell_length_c   16.87292882
_cell_angle_alpha   90.00000000
_cell_angle_beta   90.00000000
_cell_angle_gamma   118.93935900
_symmetry_Int_Tables_number   1
_chemical_formula_structural   H2He
_chemical_formula_sum   'H16 He8'
_cell_volume   405.23700774
_cell_formula_units_Z   8
loop_
 _symmetry_equiv_pos_site_id
 _symmetry_equiv_pos_as_xyz
  1  'x, y, z'
loop_
 _atom_site_type_symbol
 _atom_site_label
 _atom_site_symmetry_multiplicity
 _atom_site_fract_x
 _atom_site_fract_y
 _atom_site_fract_z
 _atom_site_occupancy
  H  H0  1  0.66584680  0.33169361  0.12277597  1
  H  H1  1  0.33415320  0.66830639  0.62277597  1
  H  H2  1  0.33415320  0.66830639  0.87722403  1
  H  H3  1  0.66584680  0.33169361  0.37722403  1
  H  H4  1  -0.00000000  0.50000000  -0.00000000  1
  H  H5  1  0.50000000  0.50000000  -0.00000000  1
  H  H6  1  0.50000000  0.00000000  0.00000000  1
  H  H7  1  0.00000000  0.50000000  0.50000000  1
  H  H8  1  0.50000000  0.50000000  0.50000000  1
  H  H9  1  0.50000000  0.00000000  0.50000000  1
  H  H10  1  0.33090226  0.16033540  0.25000000  1
  H  H11  1  0.82943315  0.16033540  0.25000000  1
  H  H12  1  0.83079668  0.66159336  0.25000000  1
  H  H13  1  0.66909774  0.83966460  0.75000000  1
  H  H14  1  0.17056685  0.83966460  0.75000000  1
  H  H15  1  0.16920332  0.33840664  0.75000000  1
  He  He16  1  0.99929380  0.99858759  0.09563133  1
  He  He17  1  0.00070620  0.00141241  0.59563133  1
  He  He18  1  0.00070620  0.00141241  0.90436867  1
  He  He19  1  0.99929380  0.99858759  0.40436867  1
  He  He20  1  0.67154592  0.34309183  0.84474704  1
  He  He21  1  0.32845408  0.65690817  0.34474704  1
  He  He22  1  0.32845408  0.65690817  0.15525296  1
  He  He23  1  0.67154592  0.34309183  0.65525296  1
