# generated using pymatgen
data_HHe4Li8
_symmetry_space_group_name_H-M   'P 1'
_cell_length_a   6.74022574
_cell_length_b   6.74022574
_cell_length_c   12.88393711
_cell_angle_alpha   90.00000000
_cell_angle_beta   90.00000000
_cell_angle_gamma   120.00009771
_symmetry_Int_Tables_number   1
_chemical_formula_structural   HHe4Li8
_chemical_formula_sum   'H2 He8 Li16'
_cell_volume   506.90629535
_cell_formula_units_Z   2
loop_
 _symmetry_equiv_pos_site_id
 _symmetry_equiv_pos_as_xyz
  1  'x, y, z'
loop_
 _atom_site_type_symbol
 _atom_site_label
 _atom_site_symmetry_multiplicity
 _atom_site_fract_x
 _atom_site_fract_y
 _atom_site_fract_z
 _atom_site_occupancy
  H  H0  1  -0.00000000  0.00000000  0.00000000  1
  H  H1  1  0.00000000  -0.00000000  0.50000000  1
  He  He2  1  0.99999459  0.00000541  0.25000000  1
  He  He3  1  0.00000541  0.99999459  0.75000000  1
  He  He4  1  0.49351038  0.98703400  0.25000000  1
  He  He5  1  0.01296600  0.50648962  0.25000000  1
  He  He6  1  0.49350894  0.50649106  0.25000000  1
  He  He7  1  0.50648962  0.01296600  0.75000000  1
  He  He8  1  0.98703400  0.49351038  0.75000000  1
  He  He9  1  0.50649106  0.49350894  0.75000000  1
  Li  Li10  1  0.33332765  0.66667235  0.12505685  1
  Li  Li11  1  0.66667235  0.33332765  0.62505685  1
  Li  Li12  1  0.66667235  0.33332765  0.87494315  1
  Li  Li13  1  0.33332765  0.66667235  0.37494315  1
  Li  Li14  1  0.83147785  0.66297113  0.37079977  1
  Li  Li15  1  0.33702887  0.16852215  0.37079977  1
  Li  Li16  1  0.83147898  0.16852102  0.37080026  1
  Li  Li17  1  0.16852215  0.33702887  0.87079977  1
  Li  Li18  1  0.66297113  0.83147785  0.87079977  1
  Li  Li19  1  0.16852102  0.83147898  0.87080026  1
  Li  Li20  1  0.66297113  0.83147785  0.62920023  1
  Li  Li21  1  0.16852215  0.33702887  0.62920023  1
  Li  Li22  1  0.16852102  0.83147898  0.62919974  1
  Li  Li23  1  0.33702887  0.16852215  0.12920023  1
  Li  Li24  1  0.83147785  0.66297113  0.12920023  1
  Li  Li25  1  0.83147898  0.16852102  0.12919974  1
