# generated using pymatgen
data_HHe4(Li2Be)2
_symmetry_space_group_name_H-M   'P 1'
_cell_length_a   5.10760815
_cell_length_b   5.10760815
_cell_length_c   20.26272938
_cell_angle_alpha   90.00000000
_cell_angle_beta   90.00000000
_cell_angle_gamma   90.00000000
_symmetry_Int_Tables_number   1
_chemical_formula_structural   HHe4(Li2Be)2
_chemical_formula_sum   'H4 He16 Li16 Be8'
_cell_volume   528.60721430
_cell_formula_units_Z   4
loop_
 _symmetry_equiv_pos_site_id
 _symmetry_equiv_pos_as_xyz
  1  'x, y, z'
loop_
 _atom_site_type_symbol
 _atom_site_label
 _atom_site_symmetry_multiplicity
 _atom_site_fract_x
 _atom_site_fract_y
 _atom_site_fract_z
 _atom_site_occupancy
  H  H0  1  0.00608829  0.00608829  0.00000000  1
  H  H1  1  0.99391171  0.99391171  0.50000000  1
  H  H2  1  0.49391171  0.50608829  0.25000000  1
  H  H3  1  0.50608829  0.49391171  0.75000000  1
  He  He4  1  0.54786757  0.97472539  0.13878409  1
  He  He5  1  0.45213243  0.02527461  0.63878409  1
  He  He6  1  0.52527461  0.04786757  0.38878409  1
  He  He7  1  0.47472539  0.95213243  0.88878409  1
  He  He8  1  0.95213243  0.47472539  0.11121591  1
  He  He9  1  0.04786757  0.52527461  0.61121591  1
  He  He10  1  0.97472539  0.54786757  0.86121591  1
  He  He11  1  0.02527461  0.45213243  0.36121591  1
  He  He12  1  0.49108895  0.65976651  0.06240021  1
  He  He13  1  0.50891105  0.34023349  0.56240021  1
  He  He14  1  0.84023349  0.99108895  0.31240021  1
  He  He15  1  0.15976651  0.00891105  0.81240021  1
  He  He16  1  0.00891105  0.15976651  0.18759979  1
  He  He17  1  0.99108895  0.84023349  0.68759979  1
  He  He18  1  0.65976651  0.49108895  0.93759979  1
  He  He19  1  0.34023349  0.50891105  0.43759979  1
  Li  Li20  1  0.22188625  0.04648313  0.05875665  1
  Li  Li21  1  0.77811375  0.95351687  0.55875665  1
  Li  Li22  1  0.45351687  0.72188625  0.30875665  1
  Li  Li23  1  0.54648313  0.27811375  0.80875665  1
  Li  Li24  1  0.27811375  0.54648313  0.19124335  1
  Li  Li25  1  0.72188625  0.45351687  0.69124335  1
  Li  Li26  1  0.04648313  0.22188625  0.94124335  1
  Li  Li27  1  0.95351687  0.77811375  0.44124335  1
  Li  Li28  1  0.71401968  0.05155914  0.02991205  1
  Li  Li29  1  0.28598032  0.94844086  0.52991205  1
  Li  Li30  1  0.44844086  0.21401968  0.27991205  1
  Li  Li31  1  0.55155914  0.78598032  0.77991205  1
  Li  Li32  1  0.78598032  0.55155914  0.22008795  1
  Li  Li33  1  0.21401968  0.44844086  0.72008795  1
  Li  Li34  1  0.05155914  0.71401968  0.97008795  1
  Li  Li35  1  0.94844086  0.28598032  0.47008795  1
  Be  Be36  1  0.49383701  0.93473772  0.07119396  1
  Be  Be37  1  0.50616299  0.06526228  0.57119396  1
  Be  Be38  1  0.56526228  0.99383701  0.32119396  1
  Be  Be39  1  0.43473772  0.00616299  0.82119396  1
  Be  Be40  1  0.00616299  0.43473772  0.17880604  1
  Be  Be41  1  0.99383701  0.56526228  0.67880604  1
  Be  Be42  1  0.93473772  0.49383701  0.92880604  1
  Be  Be43  1  0.06526228  0.50616299  0.42880604  1
