# generated using pymatgen
data_H3He4
_symmetry_space_group_name_H-M   'P 1'
_cell_length_a   7.72973581
_cell_length_b   7.72973581
_cell_length_c   7.72973581
_cell_angle_alpha   109.46924960
_cell_angle_beta   109.46924960
_cell_angle_gamma   109.46924960
_symmetry_Int_Tables_number   1
_chemical_formula_structural   H3He4
_chemical_formula_sum   'H6 He8'
_cell_volume   355.55251176
_cell_formula_units_Z   2
loop_
 _symmetry_equiv_pos_site_id
 _symmetry_equiv_pos_as_xyz
  1  'x, y, z'
loop_
 _atom_site_type_symbol
 _atom_site_label
 _atom_site_symmetry_multiplicity
 _atom_site_fract_x
 _atom_site_fract_y
 _atom_site_fract_z
 _atom_site_occupancy
  H  H0  1  0.01872509  0.39308420  0.14439618  1
  H  H1  1  0.14439618  0.01872509  0.39308420  1
  H  H2  1  0.39308420  0.14439618  0.01872509  1
  H  H3  1  0.51872509  0.64439618  0.89308420  1
  H  H4  1  0.64439618  0.89308420  0.51872509  1
  H  H5  1  0.89308420  0.51872509  0.64439618  1
  He  He6  1  0.41104766  0.41104766  0.41104766  1
  He  He7  1  0.91104766  0.91104766  0.91104766  1
  He  He8  1  0.76698708  0.13022141  0.26858839  1
  He  He9  1  0.26858839  0.76698708  0.13022141  1
  He  He10  1  0.13022141  0.26858839  0.76698708  1
  He  He11  1  0.26698708  0.76858839  0.63022141  1
  He  He12  1  0.76858839  0.63022141  0.26698708  1
  He  He13  1  0.63022141  0.26698708  0.76858839  1
