# generated using pymatgen
data_H2HeLiBe3
_symmetry_space_group_name_H-M   'P 1'
_cell_length_a   5.11333622
_cell_length_b   6.98928902
_cell_length_c   13.36117666
_cell_angle_alpha   90.00000000
_cell_angle_beta   90.00000000
_cell_angle_gamma   90.00000000
_symmetry_Int_Tables_number   1
_chemical_formula_structural   H2HeLiBe3
_chemical_formula_sum   'H8 He4 Li4 Be12'
_cell_volume   477.50954328
_cell_formula_units_Z   4
loop_
 _symmetry_equiv_pos_site_id
 _symmetry_equiv_pos_as_xyz
  1  'x, y, z'
loop_
 _atom_site_type_symbol
 _atom_site_label
 _atom_site_symmetry_multiplicity
 _atom_site_fract_x
 _atom_site_fract_y
 _atom_site_fract_z
 _atom_site_occupancy
  H  H0  1  0.25000000  0.24138490  0.96866716  1
  H  H1  1  0.75000000  0.25861510  0.46866716  1
  H  H2  1  0.75000000  0.75861510  0.03133284  1
  H  H3  1  0.25000000  0.74138490  0.53133284  1
  H  H4  1  0.75000000  0.14864055  0.74439626  1
  H  H5  1  0.25000000  0.35135945  0.24439626  1
  H  H6  1  0.25000000  0.85135945  0.25560374  1
  H  H7  1  0.75000000  0.64864055  0.75560374  1
  He  He8  1  0.75000000  0.38845802  0.90814381  1
  He  He9  1  0.25000000  0.11154198  0.40814381  1
  He  He10  1  0.25000000  0.61154198  0.09185619  1
  He  He11  1  0.75000000  0.88845802  0.59185619  1
  Li  Li12  1  0.25000000  0.35486696  0.64930792  1
  Li  Li13  1  0.75000000  0.14513304  0.14930792  1
  Li  Li14  1  0.75000000  0.64513304  0.35069208  1
  Li  Li15  1  0.25000000  0.85486696  0.85069208  1
  Be  Be16  1  0.25000000  0.21361473  0.70856982  1
  Be  Be17  1  0.75000000  0.28638527  0.20856982  1
  Be  Be18  1  0.75000000  0.78638527  0.29143018  1
  Be  Be19  1  0.25000000  0.71361473  0.79143018  1
  Be  Be20  1  0.46490379  0.42679275  0.61946172  1
  Be  Be21  1  0.53509621  0.07320725  0.11946172  1
  Be  Be22  1  0.96490379  0.57320725  0.38053828  1
  Be  Be23  1  0.03509621  0.92679275  0.88053828  1
  Be  Be24  1  0.53509621  0.57320725  0.38053828  1
  Be  Be25  1  0.46490379  0.92679275  0.88053828  1
  Be  Be26  1  0.03509621  0.42679275  0.61946172  1
  Be  Be27  1  0.96490379  0.07320725  0.11946172  1
