# generated using pymatgen
data_HHe4(LiBe4)2
_symmetry_space_group_name_H-M   'P 1'
_cell_length_a   11.88684351
_cell_length_b   11.88684351
_cell_length_c   11.88684351
_cell_angle_alpha   134.02311703
_cell_angle_beta   128.50693721
_cell_angle_gamma   71.48469688
_symmetry_Int_Tables_number   1
_chemical_formula_structural   HHe4(LiBe4)2
_chemical_formula_sum   'H2 He8 Li4 Be16'
_cell_volume   925.08489576
_cell_formula_units_Z   2
loop_
 _symmetry_equiv_pos_site_id
 _symmetry_equiv_pos_as_xyz
  1  'x, y, z'
loop_
 _atom_site_type_symbol
 _atom_site_label
 _atom_site_symmetry_multiplicity
 _atom_site_fract_x
 _atom_site_fract_y
 _atom_site_fract_z
 _atom_site_occupancy
  H  H0  1  0.25000000  0.00000000  0.25000000  1
  H  H1  1  0.75000000  -0.00000000  0.75000000  1
  He  He2  1  0.91645781  0.53193683  0.61547901  1
  He  He3  1  0.08354219  0.46806317  0.38452099  1
  He  He4  1  0.58354219  0.69902120  0.11547901  1
  He  He5  1  0.41645781  0.30097880  0.88452099  1
  He  He6  1  0.01130092  0.76130092  0.25000000  1
  He  He7  1  0.48869908  0.23869908  0.25000000  1
  He  He8  1  0.98869908  0.23869908  0.75000000  1
  He  He9  1  0.51130092  0.76130092  0.75000000  1
  Li  Li10  1  0.37252566  0.66753901  0.29501334  1
  Li  Li11  1  0.62747434  0.33246099  0.70498666  1
  Li  Li12  1  0.12747434  0.92248768  0.79501334  1
  Li  Li13  1  0.87252566  0.07751232  0.20498666  1
  Be  Be14  1  0.25116521  0.62928228  0.02976354  1
  Be  Be15  1  0.40048126  0.37071772  0.62188294  1
  Be  Be16  1  0.24883479  0.77859832  0.87811706  1
  Be  Be17  1  0.09951874  0.22140168  0.47023646  1
  Be  Be18  1  0.74883479  0.37071772  0.97023646  1
  Be  Be19  1  0.59951874  0.62928228  0.37811706  1
  Be  Be20  1  0.75116521  0.22140168  0.12188294  1
  Be  Be21  1  0.90048126  0.77859832  0.52976354  1
  Be  Be22  1  0.89561311  0.86353619  0.96792309  1
  Be  Be23  1  0.10438689  0.13646381  0.03207691  1
  Be  Be24  1  0.60438689  0.07230998  0.46792309  1
  Be  Be25  1  0.39561311  0.92769002  0.53207691  1
  Be  Be26  1  0.74004091  0.49615435  0.75611344  1
  Be  Be27  1  0.25995909  0.50384565  0.24388656  1
  Be  Be28  1  0.75995909  0.01607253  0.25611344  1
  Be  Be29  1  0.24004091  0.98392747  0.74388656  1
