# generated using pymatgen
data_H3He4
_symmetry_space_group_name_H-M   'P 1'
_cell_length_a   7.22051749
_cell_length_b   7.22051749
_cell_length_c   19.05068507
_cell_angle_alpha   90.00000000
_cell_angle_beta   90.00000000
_cell_angle_gamma   150.68525688
_symmetry_Int_Tables_number   1
_chemical_formula_structural   H3He4
_chemical_formula_sum   'H12 He16'
_cell_volume   486.28930357
_cell_formula_units_Z   4
loop_
 _symmetry_equiv_pos_site_id
 _symmetry_equiv_pos_as_xyz
  1  'x, y, z'
loop_
 _atom_site_type_symbol
 _atom_site_label
 _atom_site_symmetry_multiplicity
 _atom_site_fract_x
 _atom_site_fract_y
 _atom_site_fract_z
 _atom_site_occupancy
  H  H0  1  0.42504505  0.57495495  0.75000000  1
  H  H1  1  0.57495495  0.42504505  0.25000000  1
  H  H2  1  0.69950545  0.30049455  0.75000000  1
  H  H3  1  0.30049455  0.69950545  0.25000000  1
  H  H4  1  0.90289728  0.09710272  0.11568981  1
  H  H5  1  0.09710272  0.90289728  0.61568981  1
  H  H6  1  0.90289728  0.09710272  0.38431019  1
  H  H7  1  0.09710272  0.90289728  0.88431019  1
  H  H8  1  0.83614977  0.16385023  0.92425347  1
  H  H9  1  0.16385023  0.83614977  0.42425347  1
  H  H10  1  0.83614977  0.16385023  0.57574653  1
  H  H11  1  0.16385023  0.83614977  0.07574653  1
  He  He12  1  -0.00000000  0.00000000  0.00000000  1
  He  He13  1  0.00000000  -0.00000000  0.50000000  1
  He  He14  1  0.06124280  0.93875720  0.75000000  1
  He  He15  1  0.93875720  0.06124280  0.25000000  1
  He  He16  1  0.73551987  0.26448013  0.16844291  1
  He  He17  1  0.26448013  0.73551987  0.66844291  1
  He  He18  1  0.73551987  0.26448013  0.33155709  1
  He  He19  1  0.26448013  0.73551987  0.83155709  1
  He  He20  1  0.53695688  0.46304312  0.11369426  1
  He  He21  1  0.46304312  0.53695688  0.61369426  1
  He  He22  1  0.53695688  0.46304312  0.38630574  1
  He  He23  1  0.46304312  0.53695688  0.88630574  1
  He  He24  1  0.65786114  0.34213886  0.97016649  1
  He  He25  1  0.34213886  0.65786114  0.47016649  1
  He  He26  1  0.65786114  0.34213886  0.52983351  1
  He  He27  1  0.34213886  0.65786114  0.02983351  1
