# generated using pymatgen
data_H4He6Li3Be
_symmetry_space_group_name_H-M   'P 1'
_cell_length_a   5.96561317
_cell_length_b   6.70802938
_cell_length_c   7.60291457
_cell_angle_alpha   77.21060028
_cell_angle_beta   75.10416499
_cell_angle_gamma   67.22294446
_symmetry_Int_Tables_number   1
_chemical_formula_structural   H4He6Li3Be
_chemical_formula_sum   'H8 He12 Li6 Be2'
_cell_volume   268.54998461
_cell_formula_units_Z   2
loop_
 _symmetry_equiv_pos_site_id
 _symmetry_equiv_pos_as_xyz
  1  'x, y, z'
loop_
 _atom_site_type_symbol
 _atom_site_label
 _atom_site_symmetry_multiplicity
 _atom_site_fract_x
 _atom_site_fract_y
 _atom_site_fract_z
 _atom_site_occupancy
  H  H0  1  0.14514876  0.59297178  0.09699022  1
  H  H1  1  0.85485124  0.40702822  0.90300978  1
  H  H2  1  0.16532211  0.00471386  0.06185688  1
  H  H3  1  0.83467789  0.99528614  0.93814312  1
  H  H4  1  0.83549495  0.09203211  0.35927749  1
  H  H5  1  0.16450505  0.90796789  0.64072251  1
  H  H6  1  0.75016798  0.70335774  0.47556798  1
  H  H7  1  0.24983202  0.29664226  0.52443202  1
  He  He8  1  0.19616177  0.78367011  0.47770223  1
  He  He9  1  0.80383823  0.21632989  0.52229777  1
  He  He10  1  0.23069531  0.54938673  0.43461308  1
  He  He11  1  0.76930469  0.45061327  0.56538692  1
  He  He12  1  0.35851506  0.06074414  0.17875905  1
  He  He13  1  0.64148494  0.93925586  0.82124095  1
  He  He14  1  0.38959091  0.15702167  0.34495932  1
  He  He15  1  0.61040909  0.84297833  0.65504068  1
  He  He16  1  0.73833587  0.56090028  0.06395453  1
  He  He17  1  0.26166413  0.43909972  0.93604547  1
  He  He18  1  0.50499630  0.67164894  0.22431321  1
  He  He19  1  0.49500370  0.32835106  0.77568679  1
  Li  Li20  1  0.21727950  0.70102737  0.37574320  1
  Li  Li21  1  0.78272050  0.29897263  0.62425680  1
  Li  Li22  1  0.47829405  0.07063422  0.24158130  1
  Li  Li23  1  0.52170595  0.92936578  0.75841870  1
  Li  Li24  1  0.67342398  0.66437868  0.15639496  1
  Li  Li25  1  0.32657602  0.33562132  0.84360504  1
  Be  Be26  1  0.88201999  0.84950240  0.21717824  1
  Be  Be27  1  0.11798001  0.15049760  0.78282176  1
