# generated using pymatgen
data_H2HeLi
_symmetry_space_group_name_H-M   'P 1'
_cell_length_a   4.02886318
_cell_length_b   4.02886318
_cell_length_c   9.67654681
_cell_angle_alpha   90.00000000
_cell_angle_beta   90.00000000
_cell_angle_gamma   90.00000000
_symmetry_Int_Tables_number   1
_chemical_formula_structural   H2HeLi
_chemical_formula_sum   'H4 He2 Li2'
_cell_volume   157.06717779
_cell_formula_units_Z   2
loop_
 _symmetry_equiv_pos_site_id
 _symmetry_equiv_pos_as_xyz
  1  'x, y, z'
loop_
 _atom_site_type_symbol
 _atom_site_label
 _atom_site_symmetry_multiplicity
 _atom_site_fract_x
 _atom_site_fract_y
 _atom_site_fract_z
 _atom_site_occupancy
  H  H0  1  0.25000000  0.75000000  0.00000000  1
  H  H1  1  0.75000000  0.25000000  0.00000000  1
  H  H2  1  0.25000000  0.25000000  0.66131909  1
  H  H3  1  0.75000000  0.75000000  0.33868091  1
  He  He4  1  0.25000000  0.75000000  0.50000000  1
  He  He5  1  0.75000000  0.25000000  0.50000000  1
  Li  Li6  1  0.25000000  0.25000000  0.23147562  1
  Li  Li7  1  0.75000000  0.75000000  0.76852438  1
