# generated using pymatgen
data_HHeLiBe4
_symmetry_space_group_name_H-M   'P 1'
_cell_length_a   6.30625511
_cell_length_b   6.30625511
_cell_length_c   9.83794956
_cell_angle_alpha   90.00000000
_cell_angle_beta   90.00000000
_cell_angle_gamma   105.44029322
_symmetry_Int_Tables_number   1
_chemical_formula_structural   HHeLiBe4
_chemical_formula_sum   'H2 He2 Li2 Be8'
_cell_volume   377.12335902
_cell_formula_units_Z   2
loop_
 _symmetry_equiv_pos_site_id
 _symmetry_equiv_pos_as_xyz
  1  'x, y, z'
loop_
 _atom_site_type_symbol
 _atom_site_label
 _atom_site_symmetry_multiplicity
 _atom_site_fract_x
 _atom_site_fract_y
 _atom_site_fract_z
 _atom_site_occupancy
  H  H0  1  0.11418733  0.11418733  0.50000000  1
  H  H1  1  0.11418733  0.11418733  0.00000000  1
  He  He2  1  0.64047207  0.64047207  0.50000000  1
  He  He3  1  0.64047207  0.64047207  0.00000000  1
  Li  Li4  1  0.41808335  0.83470438  0.25000000  1
  Li  Li5  1  0.83470438  0.41808335  0.75000000  1
  Be  Be6  1  0.81462807  0.77022506  0.75000000  1
  Be  Be7  1  0.77022506  0.81462807  0.25000000  1
  Be  Be8  1  0.41397860  0.18726483  0.25000000  1
  Be  Be9  1  0.18726483  0.41397860  0.75000000  1
  Be  Be10  1  0.67381419  0.25788426  0.55911730  1
  Be  Be11  1  0.25788426  0.67381419  0.44088270  1
  Be  Be12  1  0.25788426  0.67381419  0.05911730  1
  Be  Be13  1  0.67381419  0.25788426  0.94088270  1
