# generated using pymatgen
data_HHe2Li4
_symmetry_space_group_name_H-M   'P 1'
_cell_length_a   3.97070948
_cell_length_b   12.17591549
_cell_length_c   14.33489500
_cell_angle_alpha   90.00000000
_cell_angle_beta   90.00000000
_cell_angle_gamma   90.00000000
_symmetry_Int_Tables_number   1
_chemical_formula_structural   HHe2Li4
_chemical_formula_sum   'H4 He8 Li16'
_cell_volume   693.04949980
_cell_formula_units_Z   4
loop_
 _symmetry_equiv_pos_site_id
 _symmetry_equiv_pos_as_xyz
  1  'x, y, z'
loop_
 _atom_site_type_symbol
 _atom_site_label
 _atom_site_symmetry_multiplicity
 _atom_site_fract_x
 _atom_site_fract_y
 _atom_site_fract_z
 _atom_site_occupancy
  H  H0  1  0.25000000  0.24136832  0.33699477  1
  H  H1  1  0.75000000  0.25863168  0.83699477  1
  H  H2  1  0.75000000  0.75863168  0.66300523  1
  H  H3  1  0.25000000  0.74136832  0.16300523  1
  He  He4  1  0.25000000  0.07870989  0.60064183  1
  He  He5  1  0.75000000  0.42129011  0.10064183  1
  He  He6  1  0.75000000  0.92129011  0.39935817  1
  He  He7  1  0.25000000  0.57870989  0.89935817  1
  He  He8  1  0.25000000  0.56467421  0.39146205  1
  He  He9  1  0.75000000  0.93532579  0.89146205  1
  He  He10  1  0.75000000  0.43532579  0.60853795  1
  He  He11  1  0.25000000  0.06467421  0.10853795  1
  Li  Li12  1  0.25000000  0.08072173  0.92445495  1
  Li  Li13  1  0.75000000  0.41927827  0.42445495  1
  Li  Li14  1  0.75000000  0.91927827  0.07554505  1
  Li  Li15  1  0.25000000  0.58072173  0.57554505  1
  Li  Li16  1  0.25000000  0.29352057  0.65807204  1
  Li  Li17  1  0.75000000  0.20647943  0.15807204  1
  Li  Li18  1  0.75000000  0.70647943  0.34192796  1
  Li  Li19  1  0.25000000  0.79352057  0.84192796  1
  Li  Li20  1  0.25000000  0.37847798  0.97733346  1
  Li  Li21  1  0.75000000  0.12152202  0.47733346  1
  Li  Li22  1  0.75000000  0.62152202  0.02266654  1
  Li  Li23  1  0.25000000  0.87847798  0.52266654  1
  Li  Li24  1  0.25000000  0.47663530  0.21650414  1
  Li  Li25  1  0.75000000  0.02336470  0.71650414  1
  Li  Li26  1  0.75000000  0.52336470  0.78349586  1
  Li  Li27  1  0.25000000  0.97663530  0.28349586  1
