# generated using pymatgen
data_HHe3
_symmetry_space_group_name_H-M   'P 1'
_cell_length_a   5.87133345
_cell_length_b   8.90565986
_cell_length_c   13.07783455
_cell_angle_alpha   90.00000000
_cell_angle_beta   90.00000000
_cell_angle_gamma   90.00000000
_symmetry_Int_Tables_number   1
_chemical_formula_structural   HHe3
_chemical_formula_sum   'H8 He24'
_cell_volume   683.81510388
_cell_formula_units_Z   8
loop_
 _symmetry_equiv_pos_site_id
 _symmetry_equiv_pos_as_xyz
  1  'x, y, z'
loop_
 _atom_site_type_symbol
 _atom_site_label
 _atom_site_symmetry_multiplicity
 _atom_site_fract_x
 _atom_site_fract_y
 _atom_site_fract_z
 _atom_site_occupancy
  H  H0  1  0.04908501  0.75000000  0.43993474  1
  H  H1  1  0.54908501  0.25000000  0.06006526  1
  H  H2  1  0.95091499  0.25000000  0.56006526  1
  H  H3  1  0.45091499  0.75000000  0.93993474  1
  H  H4  1  0.62902465  0.75000000  0.18098695  1
  H  H5  1  0.12902465  0.25000000  0.31901305  1
  H  H6  1  0.37097535  0.25000000  0.81901305  1
  H  H7  1  0.87097535  0.75000000  0.68098695  1
  He  He8  1  0.44085018  0.75000000  0.35332292  1
  He  He9  1  0.94085018  0.25000000  0.14667708  1
  He  He10  1  0.55914982  0.25000000  0.64667708  1
  He  He11  1  0.05914982  0.75000000  0.85332292  1
  He  He12  1  0.22177605  0.75000000  0.10725369  1
  He  He13  1  0.72177605  0.25000000  0.39274631  1
  He  He14  1  0.77822395  0.25000000  0.89274631  1
  He  He15  1  0.27822395  0.75000000  0.60725369  1
  He  He16  1  0.59511018  0.92996681  0.78683554  1
  He  He17  1  0.09511018  0.07003319  0.71316446  1
  He  He18  1  0.40488982  0.42996681  0.21316446  1
  He  He19  1  0.90488982  0.57003319  0.28683554  1
  He  He20  1  0.40488982  0.07003319  0.21316446  1
  He  He21  1  0.90488982  0.92996681  0.28683554  1
  He  He22  1  0.59511018  0.57003319  0.78683554  1
  He  He23  1  0.09511018  0.42996681  0.71316446  1
  He  He24  1  0.75556194  0.93314849  0.53618735  1
  He  He25  1  0.25556194  0.06685151  0.96381265  1
  He  He26  1  0.24443806  0.43314849  0.46381265  1
  He  He27  1  0.74443806  0.56685151  0.03618735  1
  He  He28  1  0.24443806  0.06685151  0.46381265  1
  He  He29  1  0.74443806  0.93314849  0.03618735  1
  He  He30  1  0.75556194  0.56685151  0.53618735  1
  He  He31  1  0.25556194  0.43314849  0.96381265  1
