# generated using pymatgen
data_HHe2
_symmetry_space_group_name_H-M   'P 1'
_cell_length_a   4.31088414
_cell_length_b   4.31088431
_cell_length_c   36.30991920
_cell_angle_alpha   89.99891834
_cell_angle_beta   90.00107739
_cell_angle_gamma   120.00143369
_symmetry_Int_Tables_number   1
_chemical_formula_structural   HHe2
_chemical_formula_sum   'H5 He10'
_cell_volume   584.36252815
_cell_formula_units_Z   5
loop_
 _symmetry_equiv_pos_site_id
 _symmetry_equiv_pos_as_xyz
  1  'x, y, z'
loop_
 _atom_site_type_symbol
 _atom_site_label
 _atom_site_symmetry_multiplicity
 _atom_site_fract_x
 _atom_site_fract_y
 _atom_site_fract_z
 _atom_site_occupancy
  H  H0  1  0.66666044  0.33333956  0.05001259  1
  H  H1  1  0.33334166  0.66665834  0.25001233  1
  H  H2  1  0.33334236  0.66665763  0.44997780  1
  H  H3  1  0.33334271  0.66665728  0.64999772  1
  H  H4  1  0.33334295  0.66665705  0.84999764  1
  He  He5  1  0.00000696  0.99999304  0.00244948  1
  He  He6  1  0.33334516  0.66665482  0.09754808  1
  He  He7  1  0.99998686  0.00001316  0.20244497  1
  He  He8  1  0.66666451  0.33333548  0.29754593  1
  He  He9  1  0.99999050  0.00000952  0.40243590  1
  He  He10  1  0.66666454  0.33333547  0.49753654  1
  He  He11  1  0.99999064  0.00000937  0.60247029  1
  He  He12  1  0.66666477  0.33333524  0.69756347  1
  He  He13  1  0.99999075  0.00000927  0.80245832  1
  He  He14  1  0.66666519  0.33333478  0.89754893  1
