# generated using pymatgen
data_H3HeLi3
_symmetry_space_group_name_H-M   'P 1'
_cell_length_a   6.68957503
_cell_length_b   6.68957503
_cell_length_c   5.04500040
_cell_angle_alpha   90.00000000
_cell_angle_beta   90.00000000
_cell_angle_gamma   100.68916471
_symmetry_Int_Tables_number   1
_chemical_formula_structural   H3HeLi3
_chemical_formula_sum   'H6 He2 Li6'
_cell_volume   221.84834305
_cell_formula_units_Z   2
loop_
 _symmetry_equiv_pos_site_id
 _symmetry_equiv_pos_as_xyz
  1  'x, y, z'
loop_
 _atom_site_type_symbol
 _atom_site_label
 _atom_site_symmetry_multiplicity
 _atom_site_fract_x
 _atom_site_fract_y
 _atom_site_fract_z
 _atom_site_occupancy
  H  H0  1  0.89321711  0.10678289  0.75000000  1
  H  H1  1  0.10678289  0.89321711  0.25000000  1
  H  H2  1  0.83419701  0.60035432  0.75000000  1
  H  H3  1  0.16580299  0.39964568  0.25000000  1
  H  H4  1  0.39964568  0.16580299  0.75000000  1
  H  H5  1  0.60035432  0.83419701  0.25000000  1
  He  He6  1  0.30605575  0.69394425  0.75000000  1
  He  He7  1  0.69394425  0.30605575  0.25000000  1
  Li  Li8  1  0.12381641  0.87618359  0.75000000  1
  Li  Li9  1  0.87618359  0.12381641  0.25000000  1
  Li  Li10  1  0.17848032  0.43405958  0.75000000  1
  Li  Li11  1  0.82151968  0.56594042  0.25000000  1
  Li  Li12  1  0.56594042  0.82151968  0.75000000  1
  Li  Li13  1  0.43405958  0.17848032  0.25000000  1
