# generated using pymatgen
data_H10He4Li3
_symmetry_space_group_name_H-M   'P 1'
_cell_length_a   8.65580386
_cell_length_b   8.65580386
_cell_length_c   10.29167379
_cell_angle_alpha   90.00000000
_cell_angle_beta   90.00000000
_cell_angle_gamma   107.78747623
_symmetry_Int_Tables_number   1
_chemical_formula_structural   H10He4Li3
_chemical_formula_sum   'H20 He8 Li6'
_cell_volume   734.22178312
_cell_formula_units_Z   2
loop_
 _symmetry_equiv_pos_site_id
 _symmetry_equiv_pos_as_xyz
  1  'x, y, z'
loop_
 _atom_site_type_symbol
 _atom_site_label
 _atom_site_symmetry_multiplicity
 _atom_site_fract_x
 _atom_site_fract_y
 _atom_site_fract_z
 _atom_site_occupancy
  H  H0  1  0.88446641  0.16664122  0.79131223  1
  H  H1  1  0.61553359  0.33335878  0.29131223  1
  H  H2  1  0.66664122  0.38446641  0.70868777  1
  H  H3  1  0.83335878  0.11553359  0.20868777  1
  H  H4  1  0.11553359  0.83335878  0.20868777  1
  H  H5  1  0.38446641  0.66664122  0.70868777  1
  H  H6  1  0.33335878  0.61553359  0.29131223  1
  H  H7  1  0.16664122  0.88446641  0.79131223  1
  H  H8  1  0.93279441  0.65073335  0.98476857  1
  H  H9  1  0.56720559  0.84926665  0.48476857  1
  H  H10  1  0.15073335  0.43279441  0.51523143  1
  H  H11  1  0.34926665  0.06720559  0.01523143  1
  H  H12  1  0.06720559  0.34926665  0.01523143  1
  H  H13  1  0.43279441  0.15073335  0.51523143  1
  H  H14  1  0.84926665  0.56720559  0.48476857  1
  H  H15  1  0.65073335  0.93279441  0.98476857  1
  H  H16  1  0.09751983  0.09751983  0.59526858  1
  H  H17  1  0.40248017  0.40248017  0.09526858  1
  H  H18  1  0.59751983  0.59751983  0.90473142  1
  H  H19  1  0.90248017  0.90248017  0.40473142  1
  He  He20  1  0.69866290  0.30133710  0.00000000  1
  He  He21  1  0.80133710  0.19866290  0.50000000  1
  He  He22  1  0.30133710  0.69866290  0.00000000  1
  He  He23  1  0.19866290  0.80133710  0.50000000  1
  He  He24  1  0.30127520  0.30127520  0.79594734  1
  He  He25  1  0.19872480  0.19872480  0.29594734  1
  He  He26  1  0.80127520  0.80127520  0.70405266  1
  He  He27  1  0.69872480  0.69872480  0.20405266  1
  Li  Li28  1  0.00000000  0.00000000  0.00000000  1
  Li  Li29  1  0.50000000  0.50000000  0.50000000  1
  Li  Li30  1  0.01912114  0.51912114  0.75000000  1
  Li  Li31  1  0.48087886  0.98087886  0.25000000  1
  Li  Li32  1  0.98087886  0.48087886  0.25000000  1
  Li  Li33  1  0.51912114  0.01912114  0.75000000  1
