# generated using pymatgen
data_HHe(LiBe)3
_symmetry_space_group_name_H-M   'P 1'
_cell_length_a   5.59910090
_cell_length_b   5.59908803
_cell_length_c   14.02812518
_cell_angle_alpha   90.00000000
_cell_angle_beta   90.00000000
_cell_angle_gamma   120.00007606
_symmetry_Int_Tables_number   1
_chemical_formula_structural   HHe(LiBe)3
_chemical_formula_sum   'H2 He2 Li6 Be6'
_cell_volume   380.86013858
_cell_formula_units_Z   2
loop_
 _symmetry_equiv_pos_site_id
 _symmetry_equiv_pos_as_xyz
  1  'x, y, z'
loop_
 _atom_site_type_symbol
 _atom_site_label
 _atom_site_symmetry_multiplicity
 _atom_site_fract_x
 _atom_site_fract_y
 _atom_site_fract_z
 _atom_site_occupancy
  H  H0  1  0.00000000  0.00000000  0.00000000  1
  H  H1  1  0.00000000  0.00000000  0.50000000  1
  He  He2  1  0.66666613  0.33333225  0.75000000  1
  He  He3  1  0.33333387  0.66666775  0.25000000  1
  Li  Li4  1  0.66666692  0.33333385  0.10168211  1
  Li  Li5  1  0.33333308  0.66666615  0.60168211  1
  Li  Li6  1  0.33333308  0.66666615  0.89831789  1
  Li  Li7  1  0.66666692  0.33333385  0.39831789  1
  Li  Li8  1  0.00000078  0.00000156  0.25000000  1
  Li  Li9  1  0.99999922  0.99999844  0.75000000  1
  Be  Be10  1  0.04478018  0.52238923  0.25000000  1
  Be  Be11  1  0.47760905  0.52238923  0.25000000  1
  Be  Be12  1  0.47761194  0.95522387  0.25000000  1
  Be  Be13  1  0.95521982  0.47761077  0.75000000  1
  Be  Be14  1  0.52239095  0.47761077  0.75000000  1
  Be  Be15  1  0.52238806  0.04477613  0.75000000  1
