# generated using pymatgen
data_H10He11
_symmetry_space_group_name_H-M   'P 1'
_cell_length_a   11.33882234
_cell_length_b   11.33882234
_cell_length_c   11.33882234
_cell_angle_alpha   122.19657476
_cell_angle_beta   122.19657476
_cell_angle_gamma   86.23574585
_symmetry_Int_Tables_number   1
_chemical_formula_structural   H10He11
_chemical_formula_sum   'H20 He22'
_cell_volume   994.27239078
_cell_formula_units_Z   2
loop_
 _symmetry_equiv_pos_site_id
 _symmetry_equiv_pos_as_xyz
  1  'x, y, z'
loop_
 _atom_site_type_symbol
 _atom_site_label
 _atom_site_symmetry_multiplicity
 _atom_site_fract_x
 _atom_site_fract_y
 _atom_site_fract_z
 _atom_site_occupancy
  H  H0  1  -0.00000000  0.36178907  0.36178907  1
  H  H1  1  0.00000000  0.63821093  0.63821093  1
  H  H2  1  0.36178907  -0.00000000  0.36178907  1
  H  H3  1  0.63821093  0.00000000  0.63821093  1
  H  H4  1  0.11209711  0.11209711  -0.00000000  1
  H  H5  1  0.88790289  0.88790289  -0.00000000  1
  H  H6  1  0.38058039  0.38058039  0.76116078  1
  H  H7  1  0.61941961  0.61941961  0.23883922  1
  H  H8  1  0.38058039  0.61941961  0.00000000  1
  H  H9  1  0.61941961  0.38058039  0.00000000  1
  H  H10  1  0.75000000  0.25000000  0.50000000  1
  H  H11  1  0.25000000  0.75000000  0.50000000  1
  H  H12  1  0.52800092  0.52800092  0.41959668  1
  H  H13  1  0.10840424  0.10840424  0.58040332  1
  H  H14  1  0.52800092  0.10840424  0.00000000  1
  H  H15  1  0.10840424  0.52800092  0.00000000  1
  H  H16  1  0.89159576  0.47199908  0.00000000  1
  H  H17  1  0.47199908  0.89159576  0.00000000  1
  H  H18  1  0.89159576  0.89159576  0.41959668  1
  H  H19  1  0.47199908  0.47199908  0.58040332  1
  He  He20  1  0.44255747  0.19035254  0.25220493  1
  He  He21  1  0.93814761  0.19035254  0.74779507  1
  He  He22  1  0.19035254  0.93814761  0.74779507  1
  He  He23  1  0.19035254  0.44255747  0.25220493  1
  He  He24  1  0.06185239  0.80964746  0.25220493  1
  He  He25  1  0.55744253  0.80964746  0.74779507  1
  He  He26  1  0.80964746  0.06185239  0.25220493  1
  He  He27  1  0.80964746  0.55744253  0.74779507  1
  He  He28  1  0.17792480  0.17792480  0.35584960  1
  He  He29  1  0.82207520  0.82207520  0.64415040  1
  He  He30  1  0.17792480  0.82207520  -0.00000000  1
  He  He31  1  0.82207520  0.17792480  0.00000000  1
  He  He32  1  0.33956688  0.33956688  0.00000000  1
  He  He33  1  0.66043312  0.66043312  0.00000000  1
  He  He34  1  0.72065915  0.39746312  0.32319603  1
  He  He35  1  0.07426709  0.39746312  0.67680397  1
  He  He36  1  0.39746312  0.07426709  0.67680397  1
  He  He37  1  0.39746312  0.72065915  0.32319603  1
  He  He38  1  0.92573291  0.60253688  0.32319603  1
  He  He39  1  0.27934085  0.60253688  0.67680397  1
  He  He40  1  0.60253688  0.92573291  0.32319603  1
  He  He41  1  0.60253688  0.27934085  0.67680397  1
