# generated using pymatgen
data_H2He2Li
_symmetry_space_group_name_H-M   'P 1'
_cell_length_a   4.33498103
_cell_length_b   4.33492790
_cell_length_c   7.04906808
_cell_angle_alpha   90.00038384
_cell_angle_beta   90.00011983
_cell_angle_gamma   120.00091808
_symmetry_Int_Tables_number   1
_chemical_formula_structural   H2He2Li
_chemical_formula_sum   'H2 He2 Li1'
_cell_volume   114.71689917
_cell_formula_units_Z   1
loop_
 _symmetry_equiv_pos_site_id
 _symmetry_equiv_pos_as_xyz
  1  'x, y, z'
loop_
 _atom_site_type_symbol
 _atom_site_label
 _atom_site_symmetry_multiplicity
 _atom_site_fract_x
 _atom_site_fract_y
 _atom_site_fract_z
 _atom_site_occupancy
  H  H0  1  0.66667103  0.33334022  0.63791802  1
  H  H1  1  0.33332897  0.66665978  0.36208198  1
  He  He2  1  0.66666583  0.33332817  0.27258414  1
  He  He3  1  0.33333417  0.66667183  0.72741586  1
  Li  Li4  1  0.00000000  -0.00000000  -0.00000000  1
