# generated using pymatgen
data_HHe2Li
_symmetry_space_group_name_H-M   'P 1'
_cell_length_a   8.54791256
_cell_length_b   8.54791256
_cell_length_c   4.15301857
_cell_angle_alpha   90.00000000
_cell_angle_beta   90.00000000
_cell_angle_gamma   152.32760898
_symmetry_Int_Tables_number   1
_chemical_formula_structural   HHe2Li
_chemical_formula_sum   'H2 He4 Li2'
_cell_volume   140.92582282
_cell_formula_units_Z   2
loop_
 _symmetry_equiv_pos_site_id
 _symmetry_equiv_pos_as_xyz
  1  'x, y, z'
loop_
 _atom_site_type_symbol
 _atom_site_label
 _atom_site_symmetry_multiplicity
 _atom_site_fract_x
 _atom_site_fract_y
 _atom_site_fract_z
 _atom_site_occupancy
  H  H0  1  0.10755374  0.89244626  0.75000000  1
  H  H1  1  0.89244626  0.10755374  0.25000000  1
  He  He2  1  0.45799871  0.54200129  0.75000000  1
  He  He3  1  0.54200129  0.45799871  0.25000000  1
  He  He4  1  0.74865940  0.25134060  0.75000000  1
  He  He5  1  0.25134060  0.74865940  0.25000000  1
  Li  Li6  1  0.32043792  0.67956208  0.75000000  1
  Li  Li7  1  0.67956208  0.32043792  0.25000000  1
