# generated using pymatgen
data_HHe2
_symmetry_space_group_name_H-M   'P 1'
_cell_length_a   5.81864443
_cell_length_b   5.76955696
_cell_length_c   5.87703763
_cell_angle_alpha   68.57112591
_cell_angle_beta   90.00000000
_cell_angle_gamma   90.00000000
_symmetry_Int_Tables_number   1
_chemical_formula_structural   HHe2
_chemical_formula_sum   'H4 He8'
_cell_volume   183.65917885
_cell_formula_units_Z   4
loop_
 _symmetry_equiv_pos_site_id
 _symmetry_equiv_pos_as_xyz
  1  'x, y, z'
loop_
 _atom_site_type_symbol
 _atom_site_label
 _atom_site_symmetry_multiplicity
 _atom_site_fract_x
 _atom_site_fract_y
 _atom_site_fract_z
 _atom_site_occupancy
  H  H0  1  0.00110283  0.72822300  0.29194162  1
  H  H1  1  0.50110283  0.27177700  0.20805838  1
  H  H2  1  0.99889717  0.27177700  0.70805838  1
  H  H3  1  0.49889717  0.72822300  0.79194162  1
  He  He4  1  0.37685465  0.66561559  0.18895157  1
  He  He5  1  0.87685465  0.33438441  0.31104843  1
  He  He6  1  0.62314535  0.33438441  0.81104843  1
  He  He7  1  0.12314535  0.66561559  0.68895157  1
  He  He8  1  0.61929231  0.84197819  0.37145575  1
  He  He9  1  0.11929231  0.15802181  0.12854425  1
  He  He10  1  0.38070769  0.15802181  0.62854425  1
  He  He11  1  0.88070769  0.84197819  0.87145575  1
