# generated using pymatgen
data_H3HeLi
_symmetry_space_group_name_H-M   'P 1'
_cell_length_a   9.17152100
_cell_length_b   12.28915969
_cell_length_c   5.97544128
_cell_angle_alpha   90.49976113
_cell_angle_beta   92.25783622
_cell_angle_gamma   69.05439301
_symmetry_Int_Tables_number   1
_chemical_formula_structural   H3HeLi
_chemical_formula_sum   'H18 He6 Li6'
_cell_volume   628.49069758
_cell_formula_units_Z   6
loop_
 _symmetry_equiv_pos_site_id
 _symmetry_equiv_pos_as_xyz
  1  'x, y, z'
loop_
 _atom_site_type_symbol
 _atom_site_label
 _atom_site_symmetry_multiplicity
 _atom_site_fract_x
 _atom_site_fract_y
 _atom_site_fract_z
 _atom_site_occupancy
  H  H0  1  0.91876788  0.11268156  0.75900146  1
  H  H1  1  0.94740232  0.12201629  0.23240643  1
  H  H2  1  0.83487164  0.96453477  0.05444543  1
  H  H3  1  0.92424277  0.63762964  0.72794627  1
  H  H4  1  0.97170079  0.84199085  0.56789797  1
  H  H5  1  0.95631366  0.64827404  0.27986951  1
  H  H6  1  0.60856789  0.68912931  0.17012339  1
  H  H7  1  0.55817492  0.47659273  0.15382546  1
  H  H8  1  0.28639327  0.69734786  0.21464439  1
  H  H9  1  0.30263654  0.03935575  0.59057052  1
  H  H10  1  0.54244762  0.95829257  0.25183360  1
  H  H11  1  0.60909523  0.92077760  0.71065900  1
  H  H12  1  0.92640148  0.37545022  0.21414122  1
  H  H13  1  0.17746570  0.23616638  -0.06146722  1
  H  H14  1  0.89641064  0.38887751  0.74879930  1
  H  H15  1  0.55943858  0.22411325  0.70385659  1
  H  H16  1  0.56635750  0.21941512  0.23671725  1
  H  H17  1  0.25926661  0.31647050  0.43302149  1
  He  He18  1  0.45169597  0.10743601  0.94640469  1
  He  He19  1  0.78034289  0.78599920  0.00380545  1
  He  He20  1  0.79196092  0.54490692  0.44224194  1
  He  He21  1  0.73611557  0.28989882  0.99181562  1
  He  He22  1  0.07772963  0.21187840  0.51221632  1
  He  He23  1  0.76619337  0.03186897  0.47034129  1
  Li  Li24  1  0.00632656  0.00906467  0.00213540  1
  Li  Li25  1  0.06037306  0.67961202  0.53913216  1
  Li  Li26  1  0.45743821  0.63027386  0.03900305  1
  Li  Li27  1  0.46080673  0.90408236  0.49501785  1
  Li  Li28  1  0.04826037  0.39319975  0.97578349  1
  Li  Li29  1  0.45690165  0.32706306  0.45961069  1
