# generated using pymatgen
data_H6He2Li16Be8B
_symmetry_space_group_name_H-M   'P 1'
_cell_length_a   4.21301181
_cell_length_b   8.55859321
_cell_length_c   26.49705479
_cell_angle_alpha   90.00000000
_cell_angle_beta   90.00000000
_cell_angle_gamma   90.00000000
_symmetry_Int_Tables_number   1
_chemical_formula_structural   H6He2Li16Be8B
_chemical_formula_sum   'H12 He4 Li32 Be16 B2'
_cell_volume   955.41634120
_cell_formula_units_Z   2
loop_
 _symmetry_equiv_pos_site_id
 _symmetry_equiv_pos_as_xyz
  1  'x, y, z'
loop_
 _atom_site_type_symbol
 _atom_site_label
 _atom_site_symmetry_multiplicity
 _atom_site_fract_x
 _atom_site_fract_y
 _atom_site_fract_z
 _atom_site_occupancy
  H  H0  1  0.46754012  0.15538425  0.59055830  1
  H  H1  1  0.53245988  0.15538425  0.40944170  1
  H  H2  1  0.96754012  0.84461575  0.90944170  1
  H  H3  1  0.03245988  0.84461575  0.09055830  1
  H  H4  1  -0.00161173  0.34900570  0.70986494  1
  H  H5  1  0.00161173  0.34900570  0.29013506  1
  H  H6  1  0.49838827  0.65099430  0.79013506  1
  H  H7  1  0.50161173  0.65099430  0.20986494  1
  H  H8  1  0.02057817  0.91081669  0.69563195  1
  H  H9  1  0.97942183  0.91081669  0.30436805  1
  H  H10  1  0.52057817  0.08918331  0.80436805  1
  H  H11  1  0.47942183  0.08918331  0.19563195  1
  He  He12  1  0.50380799  0.14047716  0.69513811  1
  He  He13  1  0.49619201  0.14047716  0.30486189  1
  He  He14  1  0.00380799  0.85952284  0.80486189  1
  He  He15  1  0.99619201  0.85952284  0.19513811  1
  Li  Li16  1  0.54731251  0.37590297  0.52796972  1
  Li  Li17  1  0.45268749  0.37590297  0.47203028  1
  Li  Li18  1  0.04731251  0.62409703  0.97203028  1
  Li  Li19  1  0.95268749  0.62409703  0.02796972  1
  Li  Li20  1  -0.02271175  0.03656963  0.47045580  1
  Li  Li21  1  0.02271175  0.03656963  0.52954420  1
  Li  Li22  1  0.47728825  0.96343037  0.02954420  1
  Li  Li23  1  0.52271175  0.96343037  0.97045580  1
  Li  Li24  1  0.50805028  0.87662144  0.56385430  1
  Li  Li25  1  0.49194972  0.87662144  0.43614570  1
  Li  Li26  1  0.00805028  0.12337856  0.93614570  1
  Li  Li27  1  -0.00805028  0.12337856  0.06385430  1
  Li  Li28  1  0.52080658  0.71738341  0.59407799  1
  Li  Li29  1  0.47919342  0.71738341  0.40592201  1
  Li  Li30  1  0.02080658  0.28261659  0.90592201  1
  Li  Li31  1  0.97919342  0.28261659  0.09407799  1
  Li  Li32  1  0.80935033  0.48465957  0.60523520  1
  Li  Li33  1  0.19064967  0.48465957  0.39476480  1
  Li  Li34  1  0.30935033  0.51534043  0.89476480  1
  Li  Li35  1  0.69064967  0.51534043  0.10523520  1
  Li  Li36  1  0.10835266  0.39129403  0.58812807  1
  Li  Li37  1  0.89164734  0.39129403  0.41187193  1
  Li  Li38  1  0.60835266  0.60870597  0.91187193  1
  Li  Li39  1  0.39164734  0.60870597  0.08812807  1
  Li  Li40  1  0.34896681  0.64280144  0.66947933  1
  Li  Li41  1  0.65103319  0.64280144  0.33052067  1
  Li  Li42  1  0.84896681  0.35719856  0.83052067  1
  Li  Li43  1  0.15103319  0.35719856  0.16947933  1
  Li  Li44  1  0.70114628  0.59734338  0.67575967  1
  Li  Li45  1  0.29885372  0.59734338  0.32424033  1
  Li  Li46  1  0.20114628  0.40265662  0.82424033  1
  Li  Li47  1  0.79885372  0.40265662  0.17575967  1
  Be  Be48  1  0.50000000  0.44824488  0.50000000  1
  Be  Be49  1  0.00000000  0.55175512  0.00000000  1
  Be  Be50  1  0.00000000  0.96740315  0.50000000  1
  Be  Be51  1  0.50000000  0.03259685  0.00000000  1
  Be  Be52  1  0.50937327  0.76229018  0.55929635  1
  Be  Be53  1  0.49062673  0.76229018  0.44070365  1
  Be  Be54  1  0.00937327  0.23770982  0.94070365  1
  Be  Be55  1  0.99062673  0.23770982  0.05929635  1
  Be  Be56  1  0.97635745  0.48250318  0.57942176  1
  Be  Be57  1  0.02364255  0.48250318  0.42057824  1
  Be  Be58  1  0.47635745  0.51749682  0.92057824  1
  Be  Be59  1  0.52364255  0.51749682  0.07942176  1
  Be  Be60  1  0.53728009  0.61443525  0.64989364  1
  Be  Be61  1  0.46271991  0.61443525  0.35010636  1
  Be  Be62  1  0.03728009  0.38556475  0.85010636  1
  Be  Be63  1  0.96271991  0.38556475  0.14989364  1
  B  B64  1  0.00000000  0.65924848  0.50000000  1
  B  B65  1  0.50000000  0.34075152  0.00000000  1
