# generated using pymatgen
data_HHeLiBe4
_symmetry_space_group_name_H-M   'P 1'
_cell_length_a   5.36363962
_cell_length_b   6.60050914
_cell_length_c   11.65469184
_cell_angle_alpha   90.00000000
_cell_angle_beta   90.00000000
_cell_angle_gamma   90.00000000
_symmetry_Int_Tables_number   1
_chemical_formula_structural   HHeLiBe4
_chemical_formula_sum   'H4 He4 Li4 Be16'
_cell_volume   412.60816840
_cell_formula_units_Z   4
loop_
 _symmetry_equiv_pos_site_id
 _symmetry_equiv_pos_as_xyz
  1  'x, y, z'
loop_
 _atom_site_type_symbol
 _atom_site_label
 _atom_site_symmetry_multiplicity
 _atom_site_fract_x
 _atom_site_fract_y
 _atom_site_fract_z
 _atom_site_occupancy
  H  H0  1  0.99834071  0.75000000  0.27832869  1
  H  H1  1  0.49834071  0.25000000  0.22167131  1
  H  H2  1  0.00165929  0.25000000  0.72167131  1
  H  H3  1  0.50165929  0.75000000  0.77832869  1
  He  He4  1  0.55790950  0.75000000  0.09614162  1
  He  He5  1  0.05790950  0.25000000  0.40385838  1
  He  He6  1  0.44209050  0.25000000  0.90385838  1
  He  He7  1  0.94209050  0.75000000  0.59614162  1
  Li  Li8  1  0.00000000  0.00000000  0.00000000  1
  Li  Li9  1  0.50000000  0.00000000  0.50000000  1
  Li  Li10  1  0.00000000  0.50000000  0.00000000  1
  Li  Li11  1  0.50000000  0.50000000  0.50000000  1
  Be  Be12  1  0.26781157  0.75000000  0.60951232  1
  Be  Be13  1  0.76781157  0.25000000  0.89048768  1
  Be  Be14  1  0.73218843  0.25000000  0.39048768  1
  Be  Be15  1  0.23218843  0.75000000  0.10951232  1
  Be  Be16  1  0.68003169  0.75000000  0.95492606  1
  Be  Be17  1  0.18003169  0.25000000  0.54507394  1
  Be  Be18  1  0.31996831  0.25000000  0.04507394  1
  Be  Be19  1  0.81996831  0.75000000  0.45492606  1
  Be  Be20  1  0.70973254  0.95628806  0.17198956  1
  Be  Be21  1  0.20973254  0.04371194  0.32801044  1
  Be  Be22  1  0.29026746  0.45628806  0.82801044  1
  Be  Be23  1  0.79026746  0.54371194  0.67198956  1
  Be  Be24  1  0.29026746  0.04371194  0.82801044  1
  Be  Be25  1  0.79026746  0.95628806  0.67198956  1
  Be  Be26  1  0.70973254  0.54371194  0.17198956  1
  Be  Be27  1  0.20973254  0.45628806  0.32801044  1
