# generated using pymatgen
data_H5He4
_symmetry_space_group_name_H-M   'P 1'
_cell_length_a   8.67143219
_cell_length_b   8.79323402
_cell_length_c   16.55318203
_cell_angle_alpha   90.00000000
_cell_angle_beta   90.00000000
_cell_angle_gamma   90.00000000
_symmetry_Int_Tables_number   1
_chemical_formula_structural   H5He4
_chemical_formula_sum   'H20 He16'
_cell_volume   1262.17901303
_cell_formula_units_Z   4
loop_
 _symmetry_equiv_pos_site_id
 _symmetry_equiv_pos_as_xyz
  1  'x, y, z'
loop_
 _atom_site_type_symbol
 _atom_site_label
 _atom_site_symmetry_multiplicity
 _atom_site_fract_x
 _atom_site_fract_y
 _atom_site_fract_z
 _atom_site_occupancy
  H  H0  1  0.87891106  0.33982017  0.11749158  1
  H  H1  1  0.62108894  0.83982017  0.88250842  1
  H  H2  1  0.12108894  0.66017983  0.61749158  1
  H  H3  1  0.37891106  0.16017983  0.38250842  1
  H  H4  1  0.12108894  0.66017983  0.88250842  1
  H  H5  1  0.37891106  0.16017983  0.11749158  1
  H  H6  1  0.87891106  0.33982017  0.38250842  1
  H  H7  1  0.62108894  0.83982017  0.61749158  1
  H  H8  1  0.02741789  0.82087979  0.10144536  1
  H  H9  1  0.47258211  0.32087979  0.89855464  1
  H  H10  1  0.97258211  0.17912021  0.60144536  1
  H  H11  1  0.52741789  0.67912021  0.39855464  1
  H  H12  1  0.97258211  0.17912021  0.89855464  1
  H  H13  1  0.52741789  0.67912021  0.10144536  1
  H  H14  1  0.02741789  0.82087979  0.39855464  1
  H  H15  1  0.47258211  0.32087979  0.60144536  1
  H  H16  1  0.71025323  0.00222669  0.25000000  1
  H  H17  1  0.78974677  0.50222669  0.75000000  1
  H  H18  1  0.28974677  0.99777331  0.75000000  1
  H  H19  1  0.21025323  0.49777331  0.25000000  1
  He  He20  1  0.07757065  0.11996205  0.25000000  1
  He  He21  1  0.42242935  0.61996205  0.75000000  1
  He  He22  1  0.92242935  0.88003795  0.75000000  1
  He  He23  1  0.57757065  0.38003795  0.25000000  1
  He  He24  1  0.83429629  0.64296514  0.25000000  1
  He  He25  1  0.66570371  0.14296514  0.75000000  1
  He  He26  1  0.16570371  0.35703486  0.75000000  1
  He  He27  1  0.33429629  0.85703486  0.25000000  1
  He  He28  1  0.77978103  0.53234522  0.95676899  1
  He  He29  1  0.72021897  0.03234522  0.04323101  1
  He  He30  1  0.22021897  0.46765478  0.45676899  1
  He  He31  1  0.27978103  0.96765478  0.54323101  1
  He  He32  1  0.22021897  0.46765478  0.04323101  1
  He  He33  1  0.27978103  0.96765478  0.95676899  1
  He  He34  1  0.77978103  0.53234522  0.54323101  1
  He  He35  1  0.72021897  0.03234522  0.45676899  1
