# generated using pymatgen
data_HHeLi
_symmetry_space_group_name_H-M   'P 1'
_cell_length_a   5.63133076
_cell_length_b   5.63133076
_cell_length_c   5.63133076
_cell_angle_alpha   90.00000000
_cell_angle_beta   90.00000000
_cell_angle_gamma   90.00000000
_symmetry_Int_Tables_number   1
_chemical_formula_structural   HHeLi
_chemical_formula_sum   'H4 He4 Li4'
_cell_volume   178.58011995
_cell_formula_units_Z   4
loop_
 _symmetry_equiv_pos_site_id
 _symmetry_equiv_pos_as_xyz
  1  'x, y, z'
loop_
 _atom_site_type_symbol
 _atom_site_label
 _atom_site_symmetry_multiplicity
 _atom_site_fract_x
 _atom_site_fract_y
 _atom_site_fract_z
 _atom_site_occupancy
  H  H0  1  0.00358988  0.00358988  0.00358988  1
  H  H1  1  0.49641012  0.99641012  0.50358988  1
  H  H2  1  0.99641012  0.50358988  0.49641012  1
  H  H3  1  0.50358988  0.49641012  0.99641012  1
  He  He4  1  0.60786230  0.60786230  0.60786230  1
  He  He5  1  0.89213770  0.39213770  0.10786230  1
  He  He6  1  0.39213770  0.10786230  0.89213770  1
  He  He7  1  0.10786230  0.89213770  0.39213770  1
  Li  Li8  1  0.39140130  0.39140130  0.39140130  1
  Li  Li9  1  0.10859870  0.60859870  0.89140130  1
  Li  Li10  1  0.60859870  0.89140130  0.10859870  1
  Li  Li11  1  0.89140130  0.10859870  0.60859870  1
