# generated using pymatgen
data_HHe
_symmetry_space_group_name_H-M   'P 1'
_cell_length_a   18.48522705
_cell_length_b   7.67293748
_cell_length_c   9.83634026
_cell_angle_alpha   82.75101531
_cell_angle_beta   90.00000000
_cell_angle_gamma   90.00000000
_symmetry_Int_Tables_number   1
_chemical_formula_structural   HHe
_chemical_formula_sum   'H16 He16'
_cell_volume   1383.99592216
_cell_formula_units_Z   16
loop_
 _symmetry_equiv_pos_site_id
 _symmetry_equiv_pos_as_xyz
  1  'x, y, z'
loop_
 _atom_site_type_symbol
 _atom_site_label
 _atom_site_symmetry_multiplicity
 _atom_site_fract_x
 _atom_site_fract_y
 _atom_site_fract_z
 _atom_site_occupancy
  H  H0  1  0.98283866  0.19950678  0.15990974  1
  H  H1  1  0.48283866  0.30049322  0.84009026  1
  H  H2  1  0.01716134  0.80049322  0.84009026  1
  H  H3  1  0.51716134  0.69950678  0.15990974  1
  H  H4  1  0.11004310  0.12873340  0.42630616  1
  H  H5  1  0.61004310  0.37126660  0.57369384  1
  H  H6  1  0.88995690  0.87126660  0.57369384  1
  H  H7  1  0.38995690  0.62873340  0.42630616  1
  H  H8  1  0.10473714  0.86398266  0.28004793  1
  H  H9  1  0.60473714  0.63601734  0.71995207  1
  H  H10  1  0.89526286  0.13601734  0.71995207  1
  H  H11  1  0.39526286  0.36398266  0.28004793  1
  H  H12  1  0.11564593  0.26947653  0.07314226  1
  H  H13  1  0.61564593  0.23052347  0.92685774  1
  H  H14  1  0.88435407  0.73052347  0.92685774  1
  H  H15  1  0.38435407  0.76947653  0.07314226  1
  He  He16  1  0.99818771  0.24029223  0.38102558  1
  He  He17  1  0.49818771  0.25970777  0.61897442  1
  He  He18  1  0.00181229  0.75970777  0.61897442  1
  He  He19  1  0.50181229  0.74029223  0.38102558  1
  He  He20  1  0.99069989  0.90328128  0.20063206  1
  He  He21  1  0.49069989  0.59671872  0.79936794  1
  He  He22  1  0.00930011  0.09671872  0.79936794  1
  He  He23  1  0.50930011  0.40328128  0.20063206  1
  He  He24  1  0.16573281  0.32555586  0.27208999  1
  He  He25  1  0.66573281  0.17444414  0.72791001  1
  He  He26  1  0.83426719  0.67444414  0.72791001  1
  He  He27  1  0.33426719  0.82555586  0.27208999  1
  He  He28  1  0.15775775  0.99265133  0.08646737  1
  He  He29  1  0.65775775  0.50734867  0.91353263  1
  He  He30  1  0.84224225  0.00734867  0.91353263  1
  He  He31  1  0.34224225  0.49265133  0.08646737  1
