# generated using pymatgen
data_H9HeLi4
_symmetry_space_group_name_H-M   'P 1'
_cell_length_a   12.77307076
_cell_length_b   12.77307076
_cell_length_c   12.77307076
_cell_angle_alpha   104.74566202
_cell_angle_beta   104.74566202
_cell_angle_gamma   119.40255078
_symmetry_Int_Tables_number   1
_chemical_formula_structural   H9HeLi4
_chemical_formula_sum   'H18 He2 Li8'
_cell_volume   1567.52785163
_cell_formula_units_Z   2
loop_
 _symmetry_equiv_pos_site_id
 _symmetry_equiv_pos_as_xyz
  1  'x, y, z'
loop_
 _atom_site_type_symbol
 _atom_site_label
 _atom_site_symmetry_multiplicity
 _atom_site_fract_x
 _atom_site_fract_y
 _atom_site_fract_z
 _atom_site_occupancy
  H  H0  1  0.25000000  0.98058327  0.73058327  1
  H  H1  1  0.25000000  0.51941673  0.26941673  1
  H  H2  1  0.98058327  0.25000000  0.73058327  1
  H  H3  1  0.51941673  0.25000000  0.26941673  1
  H  H4  1  0.75000000  0.01941673  0.26941673  1
  H  H5  1  0.75000000  0.48058327  0.73058327  1
  H  H6  1  0.01941673  0.75000000  0.26941673  1
  H  H7  1  0.48058327  0.75000000  0.73058327  1
  H  H8  1  0.33183630  0.83183630  0.16367260  1
  H  H9  1  0.66816370  0.16816370  0.83632740  1
  H  H10  1  0.83183630  0.66816370  0.50000000  1
  H  H11  1  0.16816370  0.33183630  0.50000000  1
  H  H12  1  0.91711122  0.41711122  0.33422243  1
  H  H13  1  0.08288878  0.58288878  0.66577757  1
  H  H14  1  0.41711122  0.08288878  0.50000000  1
  H  H15  1  0.58288878  0.91711122  0.50000000  1
  H  H16  1  0.00000000  0.00000000  0.00000000  1
  H  H17  1  0.50000000  0.50000000  -0.00000000  1
  He  He18  1  0.75000000  0.25000000  0.50000000  1
  He  He19  1  0.25000000  0.75000000  0.50000000  1
  Li  Li20  1  0.60181693  0.10181693  0.36988732  1
  Li  Li21  1  0.73192961  0.23192961  0.63011268  1
  Li  Li22  1  0.10181693  0.73192961  0.50000000  1
  Li  Li23  1  0.23192961  0.60181693  0.50000000  1
  Li  Li24  1  0.76807039  0.39818307  0.50000000  1
  Li  Li25  1  0.89818307  0.26807039  0.50000000  1
  Li  Li26  1  0.26807039  0.76807039  0.36988732  1
  Li  Li27  1  0.39818307  0.89818307  0.63011268  1
