# generated using pymatgen
data_H2He2Li
_symmetry_space_group_name_H-M   'P 1'
_cell_length_a   3.39076742
_cell_length_b   3.39064556
_cell_length_c   5.82202829
_cell_angle_alpha   90.00094587
_cell_angle_beta   90.00000000
_cell_angle_gamma   120.00118893
_symmetry_Int_Tables_number   1
_chemical_formula_structural   H2He2Li
_chemical_formula_sum   'H2 He2 Li1'
_cell_volume   57.96690779
_cell_formula_units_Z   1
loop_
 _symmetry_equiv_pos_site_id
 _symmetry_equiv_pos_as_xyz
  1  'x, y, z'
loop_
 _atom_site_type_symbol
 _atom_site_label
 _atom_site_symmetry_multiplicity
 _atom_site_fract_x
 _atom_site_fract_y
 _atom_site_fract_z
 _atom_site_occupancy
  H  H0  1  0.66665973  0.33331945  0.35002373  1
  H  H1  1  0.33334027  0.66668055  0.64997627  1
  He  He2  1  0.66667161  0.33334323  0.72963499  1
  He  He3  1  0.33332839  0.66665677  0.27036501  1
  Li  Li4  1  -0.00000000  0.00000000  0.00000000  1
