# generated using pymatgen
data_HHe6Li3
_symmetry_space_group_name_H-M   'P 1'
_cell_length_a   13.97184244
_cell_length_b   9.31123868
_cell_length_c   13.81905596
_cell_angle_alpha   90.00000000
_cell_angle_beta   104.07814358
_cell_angle_gamma   90.00000000
_symmetry_Int_Tables_number   1
_chemical_formula_structural   HHe6Li3
_chemical_formula_sum   'H4 He24 Li12'
_cell_volume   1743.79537881
_cell_formula_units_Z   4
loop_
 _symmetry_equiv_pos_site_id
 _symmetry_equiv_pos_as_xyz
  1  'x, y, z'
loop_
 _atom_site_type_symbol
 _atom_site_label
 _atom_site_symmetry_multiplicity
 _atom_site_fract_x
 _atom_site_fract_y
 _atom_site_fract_z
 _atom_site_occupancy
  H  H0  1  0.73603431  0.99598470  0.20110798  1
  H  H1  1  0.26396569  0.49598470  0.29889202  1
  H  H2  1  0.26396569  0.00401530  0.79889202  1
  H  H3  1  0.73603431  0.50401530  0.70110798  1
  He  He4  1  0.90003687  0.98571998  0.08468066  1
  He  He5  1  0.09996313  0.48571998  0.41531934  1
  He  He6  1  0.09996313  0.01428002  0.91531934  1
  He  He7  1  0.90003687  0.51428002  0.58468066  1
  He  He8  1  0.68514276  0.30078518  0.11603041  1
  He  He9  1  0.31485724  0.80078518  0.38396959  1
  He  He10  1  0.31485724  0.69921482  0.88396959  1
  He  He11  1  0.68514276  0.19921482  0.61603041  1
  He  He12  1  0.89311619  0.13986505  0.38159311  1
  He  He13  1  0.10688381  0.63986505  0.11840689  1
  He  He14  1  0.10688381  0.86013495  0.61840689  1
  He  He15  1  0.89311619  0.36013495  0.88159311  1
  He  He16  1  0.57547824  0.01011345  0.31984889  1
  He  He17  1  0.42452176  0.51011345  0.18015111  1
  He  He18  1  0.42452176  0.98988655  0.68015111  1
  He  He19  1  0.57547824  0.48988655  0.81984889  1
  He  He20  1  0.81077484  0.69189134  0.29114862  1
  He  He21  1  0.18922516  0.19189134  0.20885138  1
  He  He22  1  0.18922516  0.30810866  0.70885138  1
  He  He23  1  0.81077484  0.80810866  0.79114862  1
  He  He24  1  0.59650193  0.83891353  0.02953807  1
  He  He25  1  0.40349807  0.33891353  0.47046193  1
  He  He26  1  0.40349807  0.16108647  0.97046193  1
  He  He27  1  0.59650193  0.66108647  0.52953807  1
  Li  Li28  1  0.79059646  0.63923463  0.01330214  1
  Li  Li29  1  0.20940354  0.13923463  0.48669786  1
  Li  Li30  1  0.20940354  0.36076537  0.98669786  1
  Li  Li31  1  0.79059646  0.86076537  0.51330214  1
  Li  Li32  1  0.63955805  0.37212153  0.36596259  1
  Li  Li33  1  0.36044195  0.87212153  0.13403741  1
  Li  Li34  1  0.36044195  0.62787847  0.63403741  1
  Li  Li35  1  0.63955805  0.12787847  0.86596259  1
  Li  Li36  1  0.95473520  0.33672981  0.19072482  1
  Li  Li37  1  0.04526480  0.83672981  0.30927518  1
  Li  Li38  1  0.04526480  0.66327019  0.80927518  1
  Li  Li39  1  0.95473520  0.16327019  0.69072482  1
