# generated using pymatgen
data_H2He3
_symmetry_space_group_name_H-M   'P 1'
_cell_length_a   4.84596624
_cell_length_b   4.98312795
_cell_length_c   7.09101537
_cell_angle_alpha   90.00076610
_cell_angle_beta   90.00000104
_cell_angle_gamma   90.00000080
_symmetry_Int_Tables_number   1
_chemical_formula_structural   H2He3
_chemical_formula_sum   'H8 He12'
_cell_volume   171.23433420
_cell_formula_units_Z   4
loop_
 _symmetry_equiv_pos_site_id
 _symmetry_equiv_pos_as_xyz
  1  'x, y, z'
loop_
 _atom_site_type_symbol
 _atom_site_label
 _atom_site_symmetry_multiplicity
 _atom_site_fract_x
 _atom_site_fract_y
 _atom_site_fract_z
 _atom_site_occupancy
  H  H0  1  0.25220851  0.03062320  0.60976646  1
  H  H1  1  0.25220851  0.46937681  0.39023354  1
  H  H2  1  0.74779149  0.96937680  0.39023354  1
  H  H3  1  0.74779149  0.53062319  0.60976646  1
  H  H4  1  0.24779722  0.96937621  0.10976844  1
  H  H5  1  0.24779722  0.53062379  0.89023156  1
  H  H6  1  0.75220278  0.03062379  0.89023156  1
  H  H7  1  0.75220278  0.46937621  0.10976844  1
  He  He8  1  0.95032401  0.75000000  0.00000006  1
  He  He9  1  0.04967599  0.25000000  -0.00000006  1
  He  He10  1  0.45032341  0.75000000  0.50000005  1
  He  He11  1  0.54967659  0.25000000  0.49999995  1
  He  He12  1  0.10677678  0.10241405  0.34587597  1
  He  He13  1  0.10677678  0.39758595  0.65412391  1
  He  He14  1  0.89322322  0.89758595  0.65412403  1
  He  He15  1  0.89322322  0.60241405  0.34587609  1
  He  He16  1  0.39322394  0.60242303  0.15412542  1
  He  He17  1  0.39322393  0.89757698  0.84587470  1
  He  He18  1  0.60677606  0.39757697  0.84587458  1
  He  He19  1  0.60677607  0.10242302  0.15412530  1
