# generated using pymatgen
data_HHe4LiBe
_symmetry_space_group_name_H-M   'P 1'
_cell_length_a   11.49969378
_cell_length_b   11.49969772
_cell_length_c   9.20007584
_cell_angle_alpha   90.00000000
_cell_angle_beta   90.00000000
_cell_angle_gamma   120.00183028
_symmetry_Int_Tables_number   1
_chemical_formula_structural   HHe4LiBe
_chemical_formula_sum   'H8 He32 Li8 Be8'
_cell_volume   1053.62660740
_cell_formula_units_Z   8
loop_
 _symmetry_equiv_pos_site_id
 _symmetry_equiv_pos_as_xyz
  1  'x, y, z'
loop_
 _atom_site_type_symbol
 _atom_site_label
 _atom_site_symmetry_multiplicity
 _atom_site_fract_x
 _atom_site_fract_y
 _atom_site_fract_z
 _atom_site_occupancy
  H  H0  1  0.33332715  0.66667478  0.06624399  1
  H  H1  1  0.66667285  0.33332522  0.56624399  1
  H  H2  1  0.32928557  0.16509784  0.20374447  1
  H  H3  1  0.83496755  0.16421016  0.20373577  1
  H  H4  1  0.83581778  0.67072548  0.20373446  1
  H  H5  1  0.67071443  0.83490216  0.70374447  1
  H  H6  1  0.16503245  0.83578984  0.70373577  1
  H  H7  1  0.16418222  0.32927452  0.70373446  1
  He  He8  1  0.18069796  0.19405509  0.12268949  1
  He  He9  1  0.80595448  0.98663952  0.12270521  1
  He  He10  1  0.01335373  0.81932886  0.12270188  1
  He  He11  1  0.81930204  0.80594491  0.62268949  1
  He  He12  1  0.19404552  0.01336048  0.62270521  1
  He  He13  1  0.98664627  0.18067114  0.62270188  1
  He  He14  1  0.50390925  0.27093710  0.09023585  1
  He  He15  1  0.72907499  0.23294571  0.09023497  1
  He  He16  1  0.76706417  0.49610043  0.09022975  1
  He  He17  1  0.49609075  0.72906290  0.59023585  1
  He  He18  1  0.27092501  0.76705429  0.59023497  1
  He  He19  1  0.23293583  0.50389957  0.59022975  1
  He  He20  1  0.33277799  0.21953172  0.41566719  1
  He  He21  1  0.78048824  0.11325371  0.41565841  1
  He  He22  1  0.88674042  0.66721886  0.41566071  1
  He  He23  1  0.66722201  0.78046828  0.91566719  1
  He  He24  1  0.21951176  0.88674629  0.91565841  1
  He  He25  1  0.11325958  0.33278114  0.91566071  1
  He  He26  1  0.66668140  0.33332202  0.34461266  1
  He  He27  1  0.33331860  0.66667798  0.84461266  1
  He  He28  1  0.30726509  0.48391200  0.13358787  1
  He  He29  1  0.51609899  0.82332817  0.13361720  1
  He  He30  1  0.17665448  0.69276729  0.13361483  1
  He  He31  1  0.69273491  0.51608800  0.63358787  1
  He  He32  1  0.48390101  0.17667183  0.63361720  1
  He  He33  1  0.82334552  0.30723271  0.63361483  1
  He  He34  1  0.02917622  0.31851722  0.20533736  1
  He  He35  1  0.68150934  0.71064666  0.20533265  1
  He  He36  1  0.28934664  0.97086298  0.20533889  1
  He  He37  1  0.97082378  0.68148278  0.70533736  1
  He  He38  1  0.31849066  0.28935334  0.70533265  1
  He  He39  1  0.71065336  0.02913702  0.70533889  1
  Li  Li40  1  0.47205330  0.51701421  0.40092946  1
  Li  Li41  1  0.48299994  0.95506100  0.40091964  1
  Li  Li42  1  0.04494313  0.52794844  0.40092805  1
  Li  Li43  1  0.52794670  0.48298579  0.90092946  1
  Li  Li44  1  0.51700006  0.04493900  0.90091964  1
  Li  Li45  1  0.95505687  0.47205156  0.90092805  1
  Li  Li46  1  0.00000483  0.99999112  0.38731961  1
  Li  Li47  1  0.99999517  0.00000888  0.88731961  1
  Be  Be48  1  0.15949674  0.33256744  0.09568058  1
  Be  Be49  1  0.66744373  0.82691598  0.09569275  1
  Be  Be50  1  0.17307164  0.84052981  0.09568856  1
  Be  Be51  1  0.84050326  0.66743256  0.59568058  1
  Be  Be52  1  0.33255627  0.17308402  0.59569275  1
  Be  Be53  1  0.82692836  0.15947019  0.59568856  1
  Be  Be54  1  0.66668393  0.33332495  0.15775772  1
  Be  Be55  1  0.33331607  0.66667505  0.65775772  1
