# generated using pymatgen
data_H2He2Li13Be5
_symmetry_space_group_name_H-M   'P 1'
_cell_length_a   7.59560404
_cell_length_b   10.31284630
_cell_length_c   7.86882234
_cell_angle_alpha   83.17609421
_cell_angle_beta   75.71225554
_cell_angle_gamma   68.81425437
_symmetry_Int_Tables_number   1
_chemical_formula_structural   H2He2Li13Be5
_chemical_formula_sum   'H4 He4 Li26 Be10'
_cell_volume   556.64734438
_cell_formula_units_Z   2
loop_
 _symmetry_equiv_pos_site_id
 _symmetry_equiv_pos_as_xyz
  1  'x, y, z'
loop_
 _atom_site_type_symbol
 _atom_site_label
 _atom_site_symmetry_multiplicity
 _atom_site_fract_x
 _atom_site_fract_y
 _atom_site_fract_z
 _atom_site_occupancy
  H  H0  1  0.54959342  0.60855869  0.14893447  1
  H  H1  1  0.45040658  0.39144131  0.85106553  1
  H  H2  1  0.97613231  0.39402968  0.83294360  1
  H  H3  1  0.02386769  0.60597032  0.16705640  1
  He  He4  1  0.17803078  0.87162384  0.07717564  1
  He  He5  1  0.82196922  0.12837616  0.92282436  1
  He  He6  1  0.83934690  0.25154790  0.59222463  1
  He  He7  1  0.16065310  0.74845210  0.40777537  1
  Li  Li8  1  0.74579388  0.57828293  0.34126167  1
  Li  Li9  1  0.25420612  0.42171707  0.65873833  1
  Li  Li10  1  0.77839091  0.00683100  0.50192078  1
  Li  Li11  1  0.22160909  0.99316900  0.49807922  1
  Li  Li12  1  0.29645539  0.63623801  0.94233535  1
  Li  Li13  1  0.70354461  0.36376199  0.05766465  1
  Li  Li14  1  0.72267254  0.44845854  0.67123871  1
  Li  Li15  1  0.27732746  0.55154146  0.32876129  1
  Li  Li16  1  0.21792721  0.89671335  0.82371275  1
  Li  Li17  1  0.78207279  0.10328665  0.17628725  1
  Li  Li18  1  0.44913448  0.68828262  0.60286358  1
  Li  Li19  1  0.55086552  0.31171738  0.39713642  1
  Li  Li20  1  0.34847652  0.82914618  0.22608366  1
  Li  Li21  1  0.65152348  0.17085382  0.77391634  1
  Li  Li22  1  0.97093320  0.83245714  0.23658382  1
  Li  Li23  1  0.02906680  0.16754286  0.76341618  1
  Li  Li24  1  0.28843336  0.10373078  0.17895444  1
  Li  Li25  1  0.71156664  0.89626922  0.82104556  1
  Li  Li26  1  0.80388508  0.68362578  0.60631375  1
  Li  Li27  1  0.19611492  0.31637422  0.39368625  1
  Li  Li28  1  0.84149346  0.63191422  0.94173368  1
  Li  Li29  1  0.15850654  0.36808578  0.05826632  1
  Li  Li30  1  0.07669481  0.74068904  0.69122623  1
  Li  Li31  1  0.92330519  0.25931096  0.30877377  1
  Li  Li32  1  0.58548858  0.93355615  0.31170885  1
  Li  Li33  1  0.41451142  0.06644385  0.68829115  1
  Be  Be34  1  0.85409229  0.73589498  0.77158816  1
  Be  Be35  1  0.14590771  0.26410502  0.22841184  1
  Be  Be36  1  0.68473555  0.59218059  0.55141358  1
  Be  Be37  1  0.31526445  0.40781941  0.44858642  1
  Be  Be38  1  0.26430348  0.73387574  0.76787719  1
  Be  Be39  1  0.73569652  0.26612426  0.23212281  1
  Be  Be40  1  0.21829630  0.03768219  0.69199718  1
  Be  Be41  1  0.78170370  0.96231781  0.30800282  1
  Be  Be42  1  0.36443739  0.96130984  0.30126786  1
  Be  Be43  1  0.63556261  0.03869016  0.69873214  1
