# generated using pymatgen
data_H8He5Li12Be
_symmetry_space_group_name_H-M   'P 1'
_cell_length_a   7.65164963
_cell_length_b   9.38206190
_cell_length_c   8.81984466
_cell_angle_alpha   96.64343958
_cell_angle_beta   111.05564143
_cell_angle_gamma   93.62200348
_symmetry_Int_Tables_number   1
_chemical_formula_structural   H8He5Li12Be
_chemical_formula_sum   'H16 He10 Li24 Be2'
_cell_volume   583.16009675
_cell_formula_units_Z   2
loop_
 _symmetry_equiv_pos_site_id
 _symmetry_equiv_pos_as_xyz
  1  'x, y, z'
loop_
 _atom_site_type_symbol
 _atom_site_label
 _atom_site_symmetry_multiplicity
 _atom_site_fract_x
 _atom_site_fract_y
 _atom_site_fract_z
 _atom_site_occupancy
  H  H0  1  0.25890560  0.76239585  0.61915238  1
  H  H1  1  0.74109440  0.23760415  0.38084762  1
  H  H2  1  0.71578043  0.56968986  0.38561657  1
  H  H3  1  0.28421957  0.43031014  0.61438343  1
  H  H4  1  0.41394163  0.62783791  0.94635074  1
  H  H5  1  0.58605837  0.37216209  0.05364926  1
  H  H6  1  0.70024838  0.59526919  0.75977273  1
  H  H7  1  0.29975162  0.40473081  0.24022727  1
  H  H8  1  0.55550401  0.06112331  0.83058728  1
  H  H9  1  0.44449599  0.93887669  0.16941272  1
  H  H10  1  0.72783846  0.77753039  0.29569370  1
  H  H11  1  0.27216154  0.22246961  0.70430630  1
  H  H12  1  0.87321959  0.10690794  0.92025854  1
  H  H13  1  0.12678041  0.89309206  0.07974146  1
  H  H14  1  0.51323474  0.33097486  0.07739899  1
  H  H15  1  0.48676526  0.66902514  0.92260101  1
  He  He16  1  0.01829657  0.58928331  0.69277415  1
  He  He17  1  0.98170343  0.41071669  0.30722585  1
  He  He18  1  0.95271531  0.76670878  0.38116961  1
  He  He19  1  0.04728469  0.23329122  0.61883039  1
  He  He20  1  0.01104681  0.65229715  0.03657354  1
  He  He21  1  0.98895319  0.34770285  0.96342646  1
  He  He22  1  0.25845912  0.94013960  0.86572073  1
  He  He23  1  0.74154088  0.05986040  0.13427927  1
  He  He24  1  0.31155021  0.13619258  0.27223153  1
  He  He25  1  0.68844979  0.86380742  0.72776847  1
  Li  Li26  1  0.14254513  0.78670074  0.63767144  1
  Li  Li27  1  0.85745487  0.21329926  0.36232856  1
  Li  Li28  1  0.85599828  0.57738074  0.42864895  1
  Li  Li29  1  0.14400172  0.42261926  0.57135105  1
  Li  Li30  1  0.11332179  0.50797789  0.91623686  1
  Li  Li31  1  0.88667821  0.49202211  0.08376314  1
  Li  Li32  1  0.80559622  0.67308189  0.79458692  1
  Li  Li33  1  0.19440378  0.32691811  0.20541308  1
  Li  Li34  1  0.07250065  0.00227997  0.22669466  1
  Li  Li35  1  0.92749935  -0.00227997  0.77330534  1
  Li  Li36  1  0.92110263  0.88436311  0.20004890  1
  Li  Li37  1  0.07889737  0.11563689  0.79995110  1
  Li  Li38  1  0.17746530  0.68357641  0.31115403  1
  Li  Li39  1  0.82253470  0.31642359  0.68884597  1
  Li  Li40  1  0.15414078  0.81581181  0.00608978  1
  Li  Li41  1  0.84585922  0.18418819  0.99391022  1
  Li  Li42  1  0.45019126  0.03386255  0.13253641  1
  Li  Li43  1  0.54980874  0.96613745  0.86746359  1
  Li  Li44  1  0.55406036  0.27824148  0.43231295  1
  Li  Li45  1  0.44593964  0.72175852  0.56768705  1
  Li  Li46  1  0.46342251  0.84625070  0.34880439  1
  Li  Li47  1  0.53657749  0.15374930  0.65119561  1
  Li  Li48  1  0.53552614  0.41741827  0.67870833  1
  Li  Li49  1  0.46447386  0.58258173  0.32129167  1
  Be  Be50  1  0.60530684  0.29017346  0.61592745  1
  Be  Be51  1  0.39469316  0.70982654  0.38407255  1
