# generated using pymatgen
data_HHeLi2
_symmetry_space_group_name_H-M   'P 1'
_cell_length_a   7.82465200
_cell_length_b   7.82465200
_cell_length_c   15.67924303
_cell_angle_alpha   82.83677707
_cell_angle_beta   82.83677707
_cell_angle_gamma   90.00260486
_symmetry_Int_Tables_number   1
_chemical_formula_structural   HHeLi2
_chemical_formula_sum   'H8 He8 Li16'
_cell_volume   944.91921142
_cell_formula_units_Z   8
loop_
 _symmetry_equiv_pos_site_id
 _symmetry_equiv_pos_as_xyz
  1  'x, y, z'
loop_
 _atom_site_type_symbol
 _atom_site_label
 _atom_site_symmetry_multiplicity
 _atom_site_fract_x
 _atom_site_fract_y
 _atom_site_fract_z
 _atom_site_occupancy
  H  H0  1  0.29086426  0.41865121  0.33714766  1
  H  H1  1  0.58134879  0.70913574  0.16285234  1
  H  H2  1  0.70913574  0.58134879  0.66285234  1
  H  H3  1  0.41865121  0.29086426  0.83714766  1
  H  H4  1  0.08738372  0.70916868  0.16273656  1
  H  H5  1  0.29083132  0.91261628  0.33726344  1
  H  H6  1  0.91261628  0.29083132  0.83726344  1
  H  H7  1  0.70916868  0.08738372  0.66273656  1
  He  He8  1  0.77808682  0.65393406  0.38640352  1
  He  He9  1  0.34606594  0.22191318  0.11359648  1
  He  He10  1  0.22191318  0.34606594  0.61359648  1
  He  He11  1  0.65393406  0.77808682  0.88640352  1
  He  He12  1  0.84856855  0.22234962  0.10848574  1
  He  He13  1  0.77765038  0.15143145  0.39151426  1
  He  He14  1  0.15143145  0.77765038  0.89151426  1
  He  He15  1  0.22234962  0.84856855  0.60848574  1
  Li  Li16  1  0.05398458  0.42914156  0.25009925  1
  Li  Li17  1  0.57085844  0.94601542  0.24990075  1
  Li  Li18  1  0.94601542  0.57085844  0.74990075  1
  Li  Li19  1  0.42914156  0.05398458  0.75009925  1
  Li  Li20  1  0.85774746  0.73312592  0.06850282  1
  Li  Li21  1  0.26687408  0.14225254  0.43149718  1
  Li  Li22  1  0.14225254  0.26687408  0.93149718  1
  Li  Li23  1  0.73312592  0.85774746  0.56850282  1
  Li  Li24  1  0.26683129  0.64123613  0.43420507  1
  Li  Li25  1  0.35876387  0.73316871  0.06579493  1
  Li  Li26  1  0.73316871  0.35876387  0.56579493  1
  Li  Li27  1  0.64123613  0.26683129  0.93420507  1
  Li  Li28  1  0.57107567  0.42892433  0.25000000  1
  Li  Li29  1  0.42892433  0.57107567  0.75000000  1
  Li  Li30  1  0.05426210  0.94573790  0.25000000  1
  Li  Li31  1  0.94573790  0.05426210  0.75000000  1
