# generated using pymatgen
data_H17He2
_symmetry_space_group_name_H-M   'P 1'
_cell_length_a   6.60261890
_cell_length_b   6.60261890
_cell_length_c   6.60261890
_cell_angle_alpha   82.85084977
_cell_angle_beta   82.85084977
_cell_angle_gamma   82.85084977
_symmetry_Int_Tables_number   1
_chemical_formula_structural   H17He2
_chemical_formula_sum   'H17 He2'
_cell_volume   281.63918502
_cell_formula_units_Z   1
loop_
 _symmetry_equiv_pos_site_id
 _symmetry_equiv_pos_as_xyz
  1  'x, y, z'
loop_
 _atom_site_type_symbol
 _atom_site_label
 _atom_site_symmetry_multiplicity
 _atom_site_fract_x
 _atom_site_fract_y
 _atom_site_fract_z
 _atom_site_occupancy
  H  H0  1  0.00000000  0.50000000  -0.00000000  1
  H  H1  1  0.50000000  -0.00000000  0.00000000  1
  H  H2  1  -0.00000000  -0.00000000  0.50000000  1
  H  H3  1  0.69883172  0.00000000  0.30116828  1
  H  H4  1  0.00000000  0.30116828  0.69883172  1
  H  H5  1  0.30116828  0.69883172  -0.00000000  1
  H  H6  1  0.30116828  -0.00000000  0.69883172  1
  H  H7  1  -0.00000000  0.69883172  0.30116828  1
  H  H8  1  0.69883172  0.30116828  0.00000000  1
  H  H9  1  0.35539472  0.85683093  0.35539472  1
  H  H10  1  0.85683093  0.35539472  0.35539472  1
  H  H11  1  0.35539472  0.35539472  0.85683093  1
  H  H12  1  0.14316907  0.64460528  0.64460528  1
  H  H13  1  0.64460528  0.14316907  0.64460528  1
  H  H14  1  0.64460528  0.64460528  0.14316907  1
  H  H15  1  0.90015327  0.90015327  0.90015327  1
  H  H16  1  0.09984673  0.09984673  0.09984673  1
  He  He17  1  0.65073462  0.65073462  0.65073462  1
  He  He18  1  0.34926538  0.34926538  0.34926538  1
