# generated using pymatgen
data_HHeLi
_symmetry_space_group_name_H-M   'P 1'
_cell_length_a   4.56482090
_cell_length_b   4.56474464
_cell_length_c   7.30631980
_cell_angle_alpha   90.00000000
_cell_angle_beta   90.00000000
_cell_angle_gamma   120.00055268
_symmetry_Int_Tables_number   1
_chemical_formula_structural   HHeLi
_chemical_formula_sum   'H2 He2 Li2'
_cell_volume   131.84604923
_cell_formula_units_Z   2
loop_
 _symmetry_equiv_pos_site_id
 _symmetry_equiv_pos_as_xyz
  1  'x, y, z'
loop_
 _atom_site_type_symbol
 _atom_site_label
 _atom_site_symmetry_multiplicity
 _atom_site_fract_x
 _atom_site_fract_y
 _atom_site_fract_z
 _atom_site_occupancy
  H  H0  1  0.66667575  0.33335151  0.31433861  1
  H  H1  1  0.33332425  0.66664849  0.81433861  1
  He  He2  1  0.99999310  0.99998620  0.99926839  1
  He  He3  1  0.00000690  0.00001380  0.49926839  1
  Li  Li4  1  0.66666945  0.33333890  0.72899300  1
  Li  Li5  1  0.33333055  0.66666110  0.22899300  1
