# generated using pymatgen
data_HHeLi7Be3
_symmetry_space_group_name_H-M   'P 1'
_cell_length_a   9.63560755
_cell_length_b   9.71169769
_cell_length_c   6.18936774
_cell_angle_alpha   90.00000000
_cell_angle_beta   90.00000000
_cell_angle_gamma   119.86310653
_symmetry_Int_Tables_number   1
_chemical_formula_structural   HHeLi7Be3
_chemical_formula_sum   'H2 He2 Li14 Be6'
_cell_volume   502.28314456
_cell_formula_units_Z   2
loop_
 _symmetry_equiv_pos_site_id
 _symmetry_equiv_pos_as_xyz
  1  'x, y, z'
loop_
 _atom_site_type_symbol
 _atom_site_label
 _atom_site_symmetry_multiplicity
 _atom_site_fract_x
 _atom_site_fract_y
 _atom_site_fract_z
 _atom_site_occupancy
  H  H0  1  0.33525648  0.66769381  0.66817786  1
  H  H1  1  0.66474352  0.33230619  0.16817786  1
  He  He2  1  0.99795580  0.99812640  0.07077261  1
  He  He3  1  0.00204420  0.00187360  0.57077261  1
  Li  Li4  1  0.10256199  0.24278286  0.83210351  1
  Li  Li5  1  0.75751420  0.86092430  0.82965587  1
  Li  Li6  1  0.13551362  0.89577425  0.83109733  1
  Li  Li7  1  0.89743801  0.75721714  0.33210351  1
  Li  Li8  1  0.24248580  0.13907570  0.32965587  1
  Li  Li9  1  0.86448638  0.10422575  0.33109733  1
  Li  Li10  1  0.43085519  0.52135192  0.51293255  1
  Li  Li11  1  0.48087080  0.90793985  0.51206926  1
  Li  Li12  1  0.09313717  0.57231743  0.51313728  1
  Li  Li13  1  0.56914481  0.47864808  0.01293255  1
  Li  Li14  1  0.51912920  0.09206015  0.01206926  1
  Li  Li15  1  0.90686283  0.42768257  0.01313728  1
  Li  Li16  1  0.33429387  0.66866963  0.03137988  1
  Li  Li17  1  0.66570613  0.33133037  0.53137988  1
  Be  Be18  1  0.15606485  0.38213488  0.24325407  1
  Be  Be19  1  0.62415228  0.77423824  0.24421073  1
  Be  Be20  1  0.22519217  0.84753687  0.24620904  1
  Be  Be21  1  0.84393515  0.61786512  0.74325407  1
  Be  Be22  1  0.37584772  0.22576176  0.74421073  1
  Be  Be23  1  0.77480783  0.15246313  0.74620904  1
