# generated using pymatgen
data_H7He2Li
_symmetry_space_group_name_H-M   'P 1'
_cell_length_a   7.73233395
_cell_length_b   7.73233395
_cell_length_c   7.73233395
_cell_angle_alpha   90.00000000
_cell_angle_beta   90.00000000
_cell_angle_gamma   90.00000000
_symmetry_Int_Tables_number   1
_chemical_formula_structural   H7He2Li
_chemical_formula_sum   'H28 He8 Li4'
_cell_volume   462.30842361
_cell_formula_units_Z   4
loop_
 _symmetry_equiv_pos_site_id
 _symmetry_equiv_pos_as_xyz
  1  'x, y, z'
loop_
 _atom_site_type_symbol
 _atom_site_label
 _atom_site_symmetry_multiplicity
 _atom_site_fract_x
 _atom_site_fract_y
 _atom_site_fract_z
 _atom_site_occupancy
  H  H0  1  0.50000000  0.50000000  0.50000000  1
  H  H1  1  0.00000000  0.50000000  0.00000000  1
  H  H2  1  0.50000000  0.00000000  0.00000000  1
  H  H3  1  0.00000000  0.00000000  0.50000000  1
  H  H4  1  0.43932271  0.19537154  0.39877319  1
  H  H5  1  0.06067729  0.80462846  0.89877319  1
  H  H6  1  0.56067729  0.69537154  0.10122681  1
  H  H7  1  0.93932271  0.30462846  0.60122681  1
  H  H8  1  0.39877319  0.43932271  0.19537154  1
  H  H9  1  0.89877319  0.06067729  0.80462846  1
  H  H10  1  0.10122681  0.56067729  0.69537154  1
  H  H11  1  0.60122681  0.93932271  0.30462846  1
  H  H12  1  0.19537154  0.39877319  0.43932271  1
  H  H13  1  0.80462846  0.89877319  0.06067729  1
  H  H14  1  0.69537154  0.10122681  0.56067729  1
  H  H15  1  0.30462846  0.60122681  0.93932271  1
  H  H16  1  0.56067729  0.80462846  0.60122681  1
  H  H17  1  0.93932271  0.19537154  0.10122681  1
  H  H18  1  0.43932271  0.30462846  0.89877319  1
  H  H19  1  0.06067729  0.69537154  0.39877319  1
  H  H20  1  0.60122681  0.56067729  0.80462846  1
  H  H21  1  0.10122681  0.93932271  0.19537154  1
  H  H22  1  0.89877319  0.43932271  0.30462846  1
  H  H23  1  0.39877319  0.06067729  0.69537154  1
  H  H24  1  0.80462846  0.60122681  0.56067729  1
  H  H25  1  0.19537154  0.10122681  0.93932271  1
  H  H26  1  0.30462846  0.89877319  0.43932271  1
  H  H27  1  0.69537154  0.39877319  0.06067729  1
  He  He28  1  0.38103796  0.38103796  0.38103796  1
  He  He29  1  0.11896204  0.61896204  0.88103796  1
  He  He30  1  0.61896204  0.88103796  0.11896204  1
  He  He31  1  0.88103796  0.11896204  0.61896204  1
  He  He32  1  0.61896204  0.61896204  0.61896204  1
  He  He33  1  0.88103796  0.38103796  0.11896204  1
  He  He34  1  0.38103796  0.11896204  0.88103796  1
  He  He35  1  0.11896204  0.88103796  0.38103796  1
  Li  Li36  1  0.00000000  0.00000000  0.00000000  1
  Li  Li37  1  0.50000000  0.00000000  0.50000000  1
  Li  Li38  1  0.00000000  0.50000000  0.50000000  1
  Li  Li39  1  0.50000000  0.50000000  0.00000000  1
