# generated using pymatgen
data_HHeLi2
_symmetry_space_group_name_H-M   'P 1'
_cell_length_a   7.07695788
_cell_length_b   6.47351012
_cell_length_c   6.77877924
_cell_angle_alpha   81.89929285
_cell_angle_beta   89.99993330
_cell_angle_gamma   90.00058002
_symmetry_Int_Tables_number   1
_chemical_formula_structural   HHeLi2
_chemical_formula_sum   'H4 He4 Li8'
_cell_volume   307.45583725
_cell_formula_units_Z   4
loop_
 _symmetry_equiv_pos_site_id
 _symmetry_equiv_pos_as_xyz
  1  'x, y, z'
loop_
 _atom_site_type_symbol
 _atom_site_label
 _atom_site_symmetry_multiplicity
 _atom_site_fract_x
 _atom_site_fract_y
 _atom_site_fract_z
 _atom_site_occupancy
  H  H0  1  0.15564938  0.58822856  0.44009989  1
  H  H1  1  0.65563041  0.41177282  0.05988884  1
  H  H2  1  0.84435062  0.41177144  0.55990011  1
  H  H3  1  0.34436959  0.58822718  0.94011116  1
  He  He4  1  0.05001117  0.19378121  0.19722727  1
  He  He5  1  0.55004551  0.80622275  0.30281387  1
  He  He6  1  0.94998883  0.80621879  0.80277273  1
  He  He7  1  0.44995449  0.19377725  0.69718613  1
  Li  Li8  1  0.61548765  0.58803440  0.71882551  1
  Li  Li9  1  0.11548773  0.41195422  0.78119735  1
  Li  Li10  1  0.38451235  0.41196560  0.28117449  1
  Li  Li11  1  0.88451227  0.58804578  0.21880265  1
  Li  Li12  1  0.22734994  0.92436140  0.49869393  1
  Li  Li13  1  0.72732429  0.07562261  0.00128188  1
  Li  Li14  1  0.77265006  0.07563860  0.50130607  1
  Li  Li15  1  0.27267571  0.92437739  0.99871812  1
