# generated using pymatgen
data_HHeLi2
_symmetry_space_group_name_H-M   'P 1'
_cell_length_a   2.96028636
_cell_length_b   2.96030016
_cell_length_c   11.27822122
_cell_angle_alpha   90.00000000
_cell_angle_beta   90.00000000
_cell_angle_gamma   120.00015429
_symmetry_Int_Tables_number   1
_chemical_formula_structural   HHeLi2
_chemical_formula_sum   'H2 He2 Li4'
_cell_volume   85.59335273
_cell_formula_units_Z   2
loop_
 _symmetry_equiv_pos_site_id
 _symmetry_equiv_pos_as_xyz
  1  'x, y, z'
loop_
 _atom_site_type_symbol
 _atom_site_label
 _atom_site_symmetry_multiplicity
 _atom_site_fract_x
 _atom_site_fract_y
 _atom_site_fract_z
 _atom_site_occupancy
  H  H0  1  -0.00000000  -0.00000000  -0.00000000  1
  H  H1  1  0.00000000  0.00000000  0.50000000  1
  He  He2  1  0.99996062  0.99998031  0.25000000  1
  He  He3  1  0.00003938  0.00001969  0.75000000  1
  Li  Li4  1  0.33329907  0.66664953  0.13458948  1
  Li  Li5  1  0.66670093  0.33335047  0.63458948  1
  Li  Li6  1  0.66670093  0.33335047  0.86541052  1
  Li  Li7  1  0.33329907  0.66664953  0.36541052  1
