# generated using pymatgen
data_HHe9Li
_symmetry_space_group_name_H-M   'P 1'
_cell_length_a   4.75683929
_cell_length_b   4.75683929
_cell_length_c   4.75683929
_cell_angle_alpha   95.16694667
_cell_angle_beta   95.16694667
_cell_angle_gamma   95.16694667
_symmetry_Int_Tables_number   1
_chemical_formula_structural   HHe9Li
_chemical_formula_sum   'H1 He9 Li1'
_cell_volume   106.23833176
_cell_formula_units_Z   1
loop_
 _symmetry_equiv_pos_site_id
 _symmetry_equiv_pos_as_xyz
  1  'x, y, z'
loop_
 _atom_site_type_symbol
 _atom_site_label
 _atom_site_symmetry_multiplicity
 _atom_site_fract_x
 _atom_site_fract_y
 _atom_site_fract_z
 _atom_site_occupancy
  H  H0  1  0.00000000  -0.00000000  -0.00000000  1
  He  He1  1  0.73894389  0.50000000  0.26105611  1
  He  He2  1  0.26105611  0.73894389  0.50000000  1
  He  He3  1  0.50000000  0.26105611  0.73894389  1
  He  He4  1  0.32190251  0.51792631  0.17400802  1
  He  He5  1  0.17400802  0.32190251  0.51792631  1
  He  He6  1  0.51792631  0.17400802  0.32190251  1
  He  He7  1  0.82599198  0.48207369  0.67809749  1
  He  He8  1  0.48207369  0.67809749  0.82599198  1
  He  He9  1  0.67809749  0.82599198  0.48207369  1
  Li  Li10  1  0.50000000  0.50000000  0.50000000  1
