# generated using pymatgen
data_H3He2Li11Be5
_symmetry_space_group_name_H-M   'P 1'
_cell_length_a   9.45339288
_cell_length_b   9.45339288
_cell_length_c   9.45339288
_cell_angle_alpha   60.00000000
_cell_angle_beta   60.00000000
_cell_angle_gamma   60.00000000
_symmetry_Int_Tables_number   1
_chemical_formula_structural   H3He2Li11Be5
_chemical_formula_sum   'H6 He4 Li22 Be10'
_cell_volume   597.37648584
_cell_formula_units_Z   2
loop_
 _symmetry_equiv_pos_site_id
 _symmetry_equiv_pos_as_xyz
  1  'x, y, z'
loop_
 _atom_site_type_symbol
 _atom_site_label
 _atom_site_symmetry_multiplicity
 _atom_site_fract_x
 _atom_site_fract_y
 _atom_site_fract_z
 _atom_site_occupancy
  H  H0  1  0.70591842  0.70591842  0.29408158  1
  H  H1  1  0.29408158  0.29408158  0.70591842  1
  H  H2  1  0.70591842  0.29408158  0.70591842  1
  H  H3  1  0.29408158  0.70591842  0.29408158  1
  H  H4  1  0.70591842  0.29408158  0.29408158  1
  H  H5  1  0.29408158  0.70591842  0.70591842  1
  He  He6  1  0.50674196  0.16441935  0.16441935  1
  He  He7  1  0.16441935  0.16441935  0.16441935  1
  He  He8  1  0.16441935  0.16441935  0.50674196  1
  He  He9  1  0.16441935  0.50674196  0.16441935  1
  Li  Li10  1  0.50000000  0.50000000  0.50000000  1
  Li  Li11  1  0.01862847  0.66045718  0.66045718  1
  Li  Li12  1  0.66045718  0.66045718  0.66045718  1
  Li  Li13  1  0.66045718  0.66045718  0.01862847  1
  Li  Li14  1  0.66045718  0.01862847  0.66045718  1
  Li  Li15  1  0.00000000  0.00000000  0.00000000  1
  Li  Li16  1  0.00408434  0.33197189  0.33197189  1
  Li  Li17  1  0.33197189  0.33197189  0.33197189  1
  Li  Li18  1  0.33197189  0.33197189  0.00408434  1
  Li  Li19  1  0.33197189  0.00408434  0.33197189  1
  Li  Li20  1  0.33130602  0.99978144  0.99978144  1
  Li  Li21  1  0.66913110  0.99978144  0.99978144  1
  Li  Li22  1  0.99978144  0.66913110  0.33130602  1
  Li  Li23  1  0.99978144  0.33130602  0.66913110  1
  Li  Li24  1  0.33130602  0.66913110  0.99978144  1
  Li  Li25  1  0.66913110  0.33130602  0.99978144  1
  Li  Li26  1  0.99978144  0.99978144  0.66913110  1
  Li  Li27  1  0.99978144  0.99978144  0.33130602  1
  Li  Li28  1  0.33130602  0.99978144  0.66913110  1
  Li  Li29  1  0.66913110  0.99978144  0.33130602  1
  Li  Li30  1  0.99978144  0.33130602  0.99978144  1
  Li  Li31  1  0.99978144  0.66913110  0.99978144  1
  Be  Be32  1  0.24782324  0.91739225  0.91739225  1
  Be  Be33  1  0.91739225  0.91739225  0.91739225  1
  Be  Be34  1  0.91739225  0.91739225  0.24782324  1
  Be  Be35  1  0.91739225  0.24782324  0.91739225  1
  Be  Be36  1  0.58250552  0.91749448  0.91749448  1
  Be  Be37  1  0.91749448  0.58250552  0.58250552  1
  Be  Be38  1  0.58250552  0.58250552  0.91749448  1
  Be  Be39  1  0.91749448  0.91749448  0.58250552  1
  Be  Be40  1  0.58250552  0.91749448  0.58250552  1
  Be  Be41  1  0.91749448  0.58250552  0.91749448  1
