# generated using pymatgen
data_HHe2Li2
_symmetry_space_group_name_H-M   'P 1'
_cell_length_a   7.82505639
_cell_length_b   7.82505639
_cell_length_c   7.82505639
_cell_angle_alpha   148.61056288
_cell_angle_beta   148.61056288
_cell_angle_gamma   44.98485476
_symmetry_Int_Tables_number   1
_chemical_formula_structural   HHe2Li2
_chemical_formula_sum   'H1 He2 Li2'
_cell_volume   129.57871269
_cell_formula_units_Z   1
loop_
 _symmetry_equiv_pos_site_id
 _symmetry_equiv_pos_as_xyz
  1  'x, y, z'
loop_
 _atom_site_type_symbol
 _atom_site_label
 _atom_site_symmetry_multiplicity
 _atom_site_fract_x
 _atom_site_fract_y
 _atom_site_fract_z
 _atom_site_occupancy
  H  H0  1  0.00000000  -0.00000000  -0.00000000  1
  He  He1  1  0.86133051  0.86133051  0.00000000  1
  He  He2  1  0.13866949  0.13866949  0.00000000  1
  Li  Li3  1  0.66682328  0.66682328  -0.00000000  1
  Li  Li4  1  0.33317672  0.33317672  -0.00000000  1
