# generated using pymatgen
data_H2He3
_symmetry_space_group_name_H-M   'P 1'
_cell_length_a   8.33506413
_cell_length_b   5.92716665
_cell_length_c   7.60467797
_cell_angle_alpha   66.59981966
_cell_angle_beta   90.00000000
_cell_angle_gamma   90.00000000
_symmetry_Int_Tables_number   1
_chemical_formula_structural   H2He3
_chemical_formula_sum   'H8 He12'
_cell_volume   344.79654247
_cell_formula_units_Z   4
loop_
 _symmetry_equiv_pos_site_id
 _symmetry_equiv_pos_as_xyz
  1  'x, y, z'
loop_
 _atom_site_type_symbol
 _atom_site_label
 _atom_site_symmetry_multiplicity
 _atom_site_fract_x
 _atom_site_fract_y
 _atom_site_fract_z
 _atom_site_occupancy
  H  H0  1  0.81812042  0.83892703  0.63605385  1
  H  H1  1  0.31812042  0.66107297  0.86394615  1
  H  H2  1  0.18187958  0.16107297  0.36394615  1
  H  H3  1  0.68187958  0.33892703  0.13605385  1
  H  H4  1  0.95968014  0.73713060  0.22304476  1
  H  H5  1  0.45968014  0.76286940  0.27695524  1
  H  H6  1  0.04031986  0.26286940  0.77695524  1
  H  H7  1  0.54031986  0.23713060  0.72304476  1
  He  He8  1  0.69995482  0.92847699  0.29289710  1
  He  He9  1  0.19995482  0.57152301  0.20710290  1
  He  He10  1  0.30004518  0.07152301  0.70710290  1
  He  He11  1  0.80004518  0.42847699  0.79289710  1
  He  He12  1  0.95097929  0.88845834  0.87473781  1
  He  He13  1  0.45097929  0.61154166  0.62526219  1
  He  He14  1  0.04902071  0.11154166  0.12526219  1
  He  He15  1  0.54902071  0.38845834  0.37473781  1
  He  He16  1  0.96954304  0.24329378  0.48867256  1
  He  He17  1  0.46954304  0.25670622  0.01132744  1
  He  He18  1  0.03045696  0.75670622  0.51132744  1
  He  He19  1  0.53045696  0.74329378  0.98867256  1
