# generated using pymatgen
data_H5He21Li2
_symmetry_space_group_name_H-M   'P 1'
_cell_length_a   12.12301040
_cell_length_b   9.19547555
_cell_length_c   8.09985697
_cell_angle_alpha   90.78736217
_cell_angle_beta   90.74367074
_cell_angle_gamma   89.12294544
_symmetry_Int_Tables_number   1
_chemical_formula_structural   H5He21Li2
_chemical_formula_sum   'H10 He42 Li4'
_cell_volume   902.68184507
_cell_formula_units_Z   2
loop_
 _symmetry_equiv_pos_site_id
 _symmetry_equiv_pos_as_xyz
  1  'x, y, z'
loop_
 _atom_site_type_symbol
 _atom_site_label
 _atom_site_symmetry_multiplicity
 _atom_site_fract_x
 _atom_site_fract_y
 _atom_site_fract_z
 _atom_site_occupancy
  H  H0  1  0.59579607  0.27714492  0.82712283  1
  H  H1  1  0.40420393  0.72285508  0.17287717  1
  H  H2  1  0.79137923  0.51034608  0.44136965  1
  H  H3  1  0.20862077  0.48965392  0.55863035  1
  H  H4  1  0.09408536  0.77661162  0.16593093  1
  H  H5  1  0.90591464  0.22338838  0.83406907  1
  H  H6  1  0.29497332  0.01434424  0.55972041  1
  H  H7  1  0.70502668  0.98565576  0.44027959  1
  H  H8  1  0.24674539  0.25042420  0.97781201  1
  H  H9  1  0.75325461  0.74957580  0.02218799  1
  He  He10  1  0.67552836  0.40904937  0.31661771  1
  He  He11  1  0.32447164  0.59095063  0.68338229  1
  He  He12  1  0.12587361  0.25844676  0.14029273  1
  He  He13  1  0.87412639  0.74155324  0.85970727  1
  He  He14  1  0.89603056  0.40251462  0.30093642  1
  He  He15  1  0.10396944  0.59748538  0.69906358  1
  He  He16  1  0.83317271  0.41095696  0.85191836  1
  He  He17  1  0.16682729  0.58904304  0.14808164  1
  He  He18  1  0.81865985  0.09919382  0.33399951  1
  He  He19  1  0.18134015  0.90080618  0.66600049  1
  He  He20  1  -0.00000000  -0.00000000  0.50000000  1
  He  He21  1  0.41607842  0.12760612  0.47121412  1
  He  He22  1  0.58392158  0.87239388  0.52878588  1
  He  He23  1  0.58252965  0.28187642  0.06839598  1
  He  He24  1  0.41747035  0.71812358  0.93160402  1
  He  He25  1  0.50000000  0.50000000  0.50000000  1
  He  He26  1  0.35893742  0.24265964  0.81014548  1
  He  He27  1  0.64106258  0.75734036  0.18985452  1
  He  He28  1  0.36330533  0.22977417  0.14941309  1
  He  He29  1  0.63669467  0.77022583  0.85058691  1
  He  He30  1  0.46002494  0.51827686  0.17340179  1
  He  He31  1  0.53997506  0.48172314  0.82659821  1
  He  He32  1  0.59849853  0.09193141  0.30099019  1
  He  He33  1  0.40150147  0.90806859  0.69900981  1
  He  He34  1  0.66061044  0.08460300  0.83480681  1
  He  He35  1  0.33938956  0.91539700  0.16519319  1
  He  He36  1  0.38998430  0.73794266  0.41477001  1
  He  He37  1  0.61001570  0.26205734  0.58522999  1
  He  He38  1  0.31103544  0.38497465  0.41347620  1
  He  He39  1  0.68896456  0.61502535  0.58652380  1
  He  He40  1  0.91314471  0.61339868  0.55013848  1
  He  He41  1  0.08685529  0.38660132  0.44986152  1
  He  He42  1  0.97085133  0.02403382  0.82280110  1
  He  He43  1  0.02914867  0.97596618  0.17719890  1
  He  He44  1  0.81122068  0.88122672  0.58165609  1
  He  He45  1  0.18877932  0.11877328  0.41834391  1
  He  He46  1  0.90294730  0.20256358  0.07428677  1
  He  He47  1  0.09705270  0.79743642  0.92571323  1
  He  He48  1  0.90672558  0.25166915  0.59303830  1
  He  He49  1  0.09327442  0.74833085  0.40696170  1
  He  He50  1  0.86206597  0.73174105  0.19815083  1
  He  He51  1  0.13793403  0.26825895  0.80184917  1
  Li  Li52  1  0.49686560  0.31615671  0.32873030  1
  Li  Li53  1  0.50313440  0.68384329  0.67126970  1
  Li  Li54  1  0.00113351  0.18351241  0.33338806  1
  Li  Li55  1  0.99886649  0.81648759  0.66661194  1
