# generated using pymatgen
data_H3HeLi3
_symmetry_space_group_name_H-M   'P 1'
_cell_length_a   8.39873391
_cell_length_b   8.39873391
_cell_length_c   8.39873391
_cell_angle_alpha   60.00000000
_cell_angle_beta   60.00000000
_cell_angle_gamma   60.00000000
_symmetry_Int_Tables_number   1
_chemical_formula_structural   H3HeLi3
_chemical_formula_sum   'H12 He4 Li12'
_cell_volume   418.91553699
_cell_formula_units_Z   4
loop_
 _symmetry_equiv_pos_site_id
 _symmetry_equiv_pos_as_xyz
  1  'x, y, z'
loop_
 _atom_site_type_symbol
 _atom_site_label
 _atom_site_symmetry_multiplicity
 _atom_site_fract_x
 _atom_site_fract_y
 _atom_site_fract_z
 _atom_site_occupancy
  H  H0  1  -0.00000000  -0.00000000  0.00000000  1
  H  H1  1  -0.00000000  0.50000000  0.00000000  1
  H  H2  1  -0.00000000  0.00000000  0.50000000  1
  H  H3  1  0.50000000  0.00000000  0.00000000  1
  H  H4  1  0.79155446  0.79155446  0.79155446  1
  H  H5  1  0.79155446  0.12533662  0.79155446  1
  H  H6  1  0.79155446  0.79155446  0.12533662  1
  H  H7  1  0.12533662  0.79155446  0.79155446  1
  H  H8  1  0.20844554  0.87466338  0.20844554  1
  H  H9  1  0.20844554  0.20844554  0.20844554  1
  H  H10  1  0.20844554  0.20844554  0.87466338  1
  H  H11  1  0.87466338  0.20844554  0.20844554  1
  He  He12  1  0.50000000  0.50000000  0.50000000  1
  He  He13  1  0.50000000  0.00000000  0.50000000  1
  He  He14  1  0.50000000  0.50000000  0.00000000  1
  He  He15  1  0.00000000  0.50000000  0.50000000  1
  Li  Li16  1  0.19262439  0.55737561  0.55737561  1
  Li  Li17  1  0.55737561  0.19262439  0.19262439  1
  Li  Li18  1  0.55737561  0.55737561  0.19262439  1
  Li  Li19  1  0.19262439  0.19262439  0.55737561  1
  Li  Li20  1  0.55737561  0.19262439  0.55737561  1
  Li  Li21  1  0.19262439  0.55737561  0.19262439  1
  Li  Li22  1  0.80737561  0.80737561  0.44262439  1
  Li  Li23  1  0.44262439  0.44262439  0.80737561  1
  Li  Li24  1  0.44262439  0.80737561  0.80737561  1
  Li  Li25  1  0.80737561  0.44262439  0.44262439  1
  Li  Li26  1  0.44262439  0.80737561  0.44262439  1
  Li  Li27  1  0.80737561  0.44262439  0.80737561  1
