# generated using pymatgen
data_HHe4(Li3Be7)2
_symmetry_space_group_name_H-M   'P 1'
_cell_length_a   20.27767347
_cell_length_b   4.16632576
_cell_length_c   17.00867496
_cell_angle_alpha   87.54439316
_cell_angle_beta   90.00000000
_cell_angle_gamma   90.00000000
_symmetry_Int_Tables_number   1
_chemical_formula_structural   HHe4(Li3Be7)2
_chemical_formula_sum   'H2 He8 Li12 Be28'
_cell_volume   1435.63105234
_cell_formula_units_Z   2
loop_
 _symmetry_equiv_pos_site_id
 _symmetry_equiv_pos_as_xyz
  1  'x, y, z'
loop_
 _atom_site_type_symbol
 _atom_site_label
 _atom_site_symmetry_multiplicity
 _atom_site_fract_x
 _atom_site_fract_y
 _atom_site_fract_z
 _atom_site_occupancy
  H  H0  1  -0.00000000  0.50000000  -0.00000000  1
  H  H1  1  0.50000000  0.50000000  0.50000000  1
  He  He2  1  0.73842942  0.56347850  0.06560744  1
  He  He3  1  0.23842942  0.43652150  0.43439256  1
  He  He4  1  0.26157058  0.43652150  0.93439256  1
  He  He5  1  0.76157058  0.56347850  0.56560744  1
  He  He6  1  0.63219677  0.53177794  0.30762410  1
  He  He7  1  0.13219677  0.46822206  0.19237590  1
  He  He8  1  0.36780323  0.46822206  0.69237590  1
  He  He9  1  0.86780323  0.53177794  0.80762410  1
  Li  Li10  1  0.55505938  0.11128846  0.10367822  1
  Li  Li11  1  0.05505938  0.88871154  0.39632178  1
  Li  Li12  1  0.44494062  0.88871154  0.89632178  1
  Li  Li13  1  0.94494062  0.11128846  0.60367822  1
  Li  Li14  1  0.94025167  0.91757607  0.18154355  1
  Li  Li15  1  0.44025167  0.08242393  0.31845645  1
  Li  Li16  1  0.05974833  0.08242393  0.81845645  1
  Li  Li17  1  0.55974833  0.91757607  0.68154355  1
  Li  Li18  1  0.66197907  0.11401973  0.87214489  1
  Li  Li19  1  0.16197907  0.88598027  0.62785511  1
  Li  Li20  1  0.33802093  0.88598027  0.12785511  1
  Li  Li21  1  0.83802093  0.11401973  0.37214489  1
  Be  Be22  1  0.66613070  0.05504062  0.18190066  1
  Be  Be23  1  0.16613070  0.94495938  0.31809934  1
  Be  Be24  1  0.33386930  0.94495938  0.81809934  1
  Be  Be25  1  0.83386930  0.05504062  0.68190066  1
  Be  Be26  1  0.89417451  0.47855919  0.08421939  1
  Be  Be27  1  0.39417451  0.52144081  0.41578061  1
  Be  Be28  1  0.10582549  0.52144081  0.91578061  1
  Be  Be29  1  0.60582549  0.47855919  0.58421939  1
  Be  Be30  1  0.54739003  0.02072618  0.40570224  1
  Be  Be31  1  0.04739003  0.97927382  0.09429776  1
  Be  Be32  1  0.45260997  0.97927382  0.59429776  1
  Be  Be33  1  0.95260997  0.02072618  0.90570224  1
  Be  Be34  1  0.77371493  0.08529551  0.94753512  1
  Be  Be35  1  0.27371493  0.91470449  0.55246488  1
  Be  Be36  1  0.22628507  0.91470449  0.05246488  1
  Be  Be37  1  0.72628507  0.08529551  0.44753512  1
  Be  Be38  1  0.60015795  0.58047632  0.99800147  1
  Be  Be39  1  0.10015795  0.41952368  0.50199853  1
  Be  Be40  1  0.39984205  0.41952368  0.00199853  1
  Be  Be41  1  0.89984205  0.58047632  0.49800147  1
  Be  Be42  1  0.50588348  0.54283698  0.21366657  1
  Be  Be43  1  0.00588348  0.45716302  0.28633343  1
  Be  Be44  1  0.49411652  0.45716302  0.78633343  1
  Be  Be45  1  0.99411652  0.54283698  0.71366657  1
  Be  Be46  1  0.79967740  0.61709981  0.27806535  1
  Be  Be47  1  0.29967740  0.38290019  0.22193465  1
  Be  Be48  1  0.20032260  0.38290019  0.72193465  1
  Be  Be49  1  0.70032260  0.61709981  0.77806535  1
