# generated using pymatgen
data_HHe
_symmetry_space_group_name_H-M   'P 1'
_cell_length_a   5.32126290
_cell_length_b   5.65320585
_cell_length_c   6.35796414
_cell_angle_alpha   90.00000000
_cell_angle_beta   90.00000000
_cell_angle_gamma   90.00000000
_symmetry_Int_Tables_number   1
_chemical_formula_structural   HHe
_chemical_formula_sum   'H4 He4'
_cell_volume   191.26151421
_cell_formula_units_Z   4
loop_
 _symmetry_equiv_pos_site_id
 _symmetry_equiv_pos_as_xyz
  1  'x, y, z'
loop_
 _atom_site_type_symbol
 _atom_site_label
 _atom_site_symmetry_multiplicity
 _atom_site_fract_x
 _atom_site_fract_y
 _atom_site_fract_z
 _atom_site_occupancy
  H  H0  1  0.25000000  0.94124153  0.85422541  1
  H  H1  1  0.75000000  0.05875847  0.14577459  1
  H  H2  1  0.25000000  0.44124153  0.14577459  1
  H  H3  1  0.75000000  0.55875847  0.85422541  1
  He  He4  1  0.25000000  0.99542339  0.24413803  1
  He  He5  1  0.75000000  0.00457661  0.75586197  1
  He  He6  1  0.25000000  0.49542339  0.75586197  1
  He  He7  1  0.75000000  0.50457661  0.24413803  1
