# generated using pymatgen
data_HHeLi
_symmetry_space_group_name_H-M   'P 1'
_cell_length_a   7.72515961
_cell_length_b   7.72515961
_cell_length_c   4.14848428
_cell_angle_alpha   90.00000000
_cell_angle_beta   90.00000000
_cell_angle_gamma   119.99931257
_symmetry_Int_Tables_number   1
_chemical_formula_structural   HHeLi
_chemical_formula_sum   'H3 He3 Li3'
_cell_volume   214.40653161
_cell_formula_units_Z   3
loop_
 _symmetry_equiv_pos_site_id
 _symmetry_equiv_pos_as_xyz
  1  'x, y, z'
loop_
 _atom_site_type_symbol
 _atom_site_label
 _atom_site_symmetry_multiplicity
 _atom_site_fract_x
 _atom_site_fract_y
 _atom_site_fract_z
 _atom_site_occupancy
  H  H0  1  0.99999793  0.99999793  0.00000000  1
  H  H1  1  0.66666949  0.33333122  0.50000000  1
  H  H2  1  0.33333122  0.66666949  0.50000000  1
  He  He3  1  0.58826821  0.99999766  0.00000000  1
  He  He4  1  0.99999766  0.58826821  0.00000000  1
  He  He5  1  0.41173122  0.41173122  0.00000000  1
  Li  Li6  1  0.25240705  0.00000404  0.50000000  1
  Li  Li7  1  0.00000404  0.25240705  0.50000000  1
  Li  Li8  1  0.74759316  0.74759316  0.50000000  1
