# generated using pymatgen
data_H4HeLi6
_symmetry_space_group_name_H-M   'P 1'
_cell_length_a   7.58358272
_cell_length_b   7.58358272
_cell_length_c   13.17472433
_cell_angle_alpha   72.82814257
_cell_angle_beta   72.82814257
_cell_angle_gamma   60.15927054
_symmetry_Int_Tables_number   1
_chemical_formula_structural   H4HeLi6
_chemical_formula_sum   'H8 He2 Li12'
_cell_volume   617.79106771
_cell_formula_units_Z   2
loop_
 _symmetry_equiv_pos_site_id
 _symmetry_equiv_pos_as_xyz
  1  'x, y, z'
loop_
 _atom_site_type_symbol
 _atom_site_label
 _atom_site_symmetry_multiplicity
 _atom_site_fract_x
 _atom_site_fract_y
 _atom_site_fract_z
 _atom_site_occupancy
  H  H0  1  0.54992795  0.76224129  0.00592805  1
  H  H1  1  0.76224129  0.54992795  0.50592805  1
  H  H2  1  0.92596376  0.07131243  0.99988607  1
  H  H3  1  0.07131243  0.92596376  0.49988607  1
  H  H4  1  0.07214904  0.29151359  0.19219627  1
  H  H5  1  0.29151359  0.07214904  0.69219627  1
  H  H6  1  0.56845449  0.16071540  0.34259639  1
  H  H7  1  0.16071540  0.56845449  0.84259639  1
  He  He8  1  0.16082584  0.70287018  0.25615025  1
  He  He9  1  0.70287018  0.16082584  0.75615025  1
  Li  Li10  1  0.83448804  0.87550302  0.20354212  1
  Li  Li11  1  0.87550302  0.83448804  0.70354212  1
  Li  Li12  1  0.36281266  0.88334103  0.20206768  1
  Li  Li13  1  0.88334103  0.36281266  0.70206768  1
  Li  Li14  1  0.42881384  0.92205090  0.50708679  1
  Li  Li15  1  0.92205090  0.42881384  0.00708679  1
  Li  Li16  1  0.36988621  0.40354141  0.17385953  1
  Li  Li17  1  0.40354141  0.36988621  0.67385953  1
  Li  Li18  1  0.13027713  0.58046947  0.44512116  1
  Li  Li19  1  0.58046947  0.13027713  0.94512116  1
  Li  Li20  1  0.82249212  0.27835021  0.38556567  1
  Li  Li21  1  0.27835021  0.82249212  0.88556567  1
