# generated using pymatgen
data_HHe3Li
_symmetry_space_group_name_H-M   'P 1'
_cell_length_a   5.55213583
_cell_length_b   5.55213583
_cell_length_c   5.55213583
_cell_angle_alpha   55.14544354
_cell_angle_beta   55.14544354
_cell_angle_gamma   55.14544354
_symmetry_Int_Tables_number   1
_chemical_formula_structural   HHe3Li
_chemical_formula_sum   'H2 He6 Li2'
_cell_volume   107.36087708
_cell_formula_units_Z   2
loop_
 _symmetry_equiv_pos_site_id
 _symmetry_equiv_pos_as_xyz
  1  'x, y, z'
loop_
 _atom_site_type_symbol
 _atom_site_label
 _atom_site_symmetry_multiplicity
 _atom_site_fract_x
 _atom_site_fract_y
 _atom_site_fract_z
 _atom_site_occupancy
  H  H0  1  0.64388219  0.64388219  0.64388219  1
  H  H1  1  0.35611781  0.35611781  0.35611781  1
  He  He2  1  0.77175653  0.04790084  0.44056791  1
  He  He3  1  0.04790084  0.44056791  0.77175653  1
  He  He4  1  0.44056791  0.77175653  0.04790084  1
  He  He5  1  0.22824347  0.95209916  0.55943209  1
  He  He6  1  0.95209916  0.55943209  0.22824347  1
  He  He7  1  0.55943209  0.22824347  0.95209916  1
  Li  Li8  1  0.85229976  0.85229976  0.85229976  1
  Li  Li9  1  0.14770024  0.14770024  0.14770024  1
