# generated using pymatgen
data_H4HeLi2
_symmetry_space_group_name_H-M   'P 1'
_cell_length_a   5.97017862
_cell_length_b   5.97017862
_cell_length_c   12.45861567
_cell_angle_alpha   90.00000000
_cell_angle_beta   90.00000000
_cell_angle_gamma   90.00000000
_symmetry_Int_Tables_number   1
_chemical_formula_structural   H4HeLi2
_chemical_formula_sum   'H16 He4 Li8'
_cell_volume   444.06284684
_cell_formula_units_Z   4
loop_
 _symmetry_equiv_pos_site_id
 _symmetry_equiv_pos_as_xyz
  1  'x, y, z'
loop_
 _atom_site_type_symbol
 _atom_site_label
 _atom_site_symmetry_multiplicity
 _atom_site_fract_x
 _atom_site_fract_y
 _atom_site_fract_z
 _atom_site_occupancy
  H  H0  1  0.25000000  0.25000000  0.03730584  1
  H  H1  1  0.25000000  0.25000000  0.53730584  1
  H  H2  1  0.75000000  0.75000000  0.46269416  1
  H  H3  1  0.75000000  0.75000000  0.96269416  1
  H  H4  1  0.94776157  0.94776157  0.16515225  1
  H  H5  1  0.55223843  0.55223843  0.16515225  1
  H  H6  1  0.55223843  0.94776157  0.66515225  1
  H  H7  1  0.94776157  0.55223843  0.66515225  1
  H  H8  1  0.05223843  0.44776157  0.33484775  1
  H  H9  1  0.44776157  0.05223843  0.33484775  1
  H  H10  1  0.44776157  0.44776157  0.83484775  1
  H  H11  1  0.05223843  0.05223843  0.83484775  1
  H  H12  1  0.75000000  0.25000000  -0.00000000  1
  H  H13  1  0.25000000  0.75000000  0.50000000  1
  H  H14  1  0.25000000  0.75000000  0.00000000  1
  H  H15  1  0.75000000  0.25000000  0.50000000  1
  He  He16  1  0.00000000  0.00000000  0.00000000  1
  He  He17  1  0.50000000  0.50000000  0.00000000  1
  He  He18  1  0.50000000  0.00000000  0.50000000  1
  He  He19  1  0.00000000  0.50000000  0.50000000  1
  Li  Li20  1  0.01799731  0.01799731  0.35316558  1
  Li  Li21  1  0.48200269  0.48200269  0.35316558  1
  Li  Li22  1  0.48200269  0.01799731  0.85316558  1
  Li  Li23  1  0.01799731  0.48200269  0.85316558  1
  Li  Li24  1  0.98200269  0.51799731  0.14683442  1
  Li  Li25  1  0.51799731  0.98200269  0.14683442  1
  Li  Li26  1  0.51799731  0.51799731  0.64683442  1
  Li  Li27  1  0.98200269  0.98200269  0.64683442  1
