# generated using pymatgen
data_H2He12Li3
_symmetry_space_group_name_H-M   'P 1'
_cell_length_a   5.53695413
_cell_length_b   9.59555519
_cell_length_c   19.88353537
_cell_angle_alpha   87.38746987
_cell_angle_beta   90.00000000
_cell_angle_gamma   90.00000000
_symmetry_Int_Tables_number   1
_chemical_formula_structural   H2He12Li3
_chemical_formula_sum   'H8 He48 Li12'
_cell_volume   1055.31718379
_cell_formula_units_Z   4
loop_
 _symmetry_equiv_pos_site_id
 _symmetry_equiv_pos_as_xyz
  1  'x, y, z'
loop_
 _atom_site_type_symbol
 _atom_site_label
 _atom_site_symmetry_multiplicity
 _atom_site_fract_x
 _atom_site_fract_y
 _atom_site_fract_z
 _atom_site_occupancy
  H  H0  1  0.19473928  0.62266158  0.12791563  1
  H  H1  1  0.69473928  0.37733842  0.37208437  1
  H  H2  1  0.80526072  0.37733842  0.87208437  1
  H  H3  1  0.30526072  0.62266158  0.62791563  1
  H  H4  1  0.22624028  0.87367796  0.37032729  1
  H  H5  1  0.72624028  0.12632204  0.12967271  1
  H  H6  1  0.77375972  0.12632204  0.62967271  1
  H  H7  1  0.27375972  0.87367796  0.87032729  1
  He  He8  1  0.27283275  0.64066727  0.03570884  1
  He  He9  1  0.77283275  0.35933273  0.46429116  1
  He  He10  1  0.72716725  0.35933273  0.96429116  1
  He  He11  1  0.22716725  0.64066727  0.53570884  1
  He  He12  1  0.19033956  0.84246848  0.96093085  1
  He  He13  1  0.69033956  0.15753152  0.53906915  1
  He  He14  1  0.80966044  0.15753152  0.03906915  1
  He  He15  1  0.30966044  0.84246848  0.46093085  1
  He  He16  1  0.85590207  0.72623329  0.02246258  1
  He  He17  1  0.35590207  0.27376671  0.47753742  1
  He  He18  1  0.14409793  0.27376671  0.97753742  1
  He  He19  1  0.64409793  0.72623329  0.52246258  1
  He  He20  1  0.06570712  0.61077052  0.92856287  1
  He  He21  1  0.56570712  0.38922948  0.57143713  1
  He  He22  1  0.93429288  0.38922948  0.07143713  1
  He  He23  1  0.43429288  0.61077052  0.42856287  1
  He  He24  1  0.44630144  0.49698401  0.14125863  1
  He  He25  1  0.94630144  0.50301599  0.35874137  1
  He  He26  1  0.55369856  0.50301599  0.85874137  1
  He  He27  1  0.05369856  0.49698401  0.64125863  1
  He  He28  1  0.45268360  0.24712591  0.12694354  1
  He  He29  1  0.95268360  0.75287409  0.37305646  1
  He  He30  1  0.54731640  0.75287409  0.87305646  1
  He  He31  1  0.04731640  0.24712591  0.62694354  1
  He  He32  1  0.60695082  0.34148339  0.23114874  1
  He  He33  1  0.10695082  0.65851661  0.26885126  1
  He  He34  1  0.39304918  0.65851661  0.76885126  1
  He  He35  1  0.89304918  0.34148339  0.73114874  1
  He  He36  1  0.16549489  0.34298058  0.20633175  1
  He  He37  1  0.66549489  0.65701942  0.29366825  1
  He  He38  1  0.83450511  0.65701942  0.79366825  1
  He  He39  1  0.33450511  0.34298058  0.70633175  1
  He  He40  1  0.42800690  0.75760430  0.15063592  1
  He  He41  1  0.92800690  0.24239570  0.34936408  1
  He  He42  1  0.57199310  0.24239570  0.84936408  1
  He  He43  1  0.07199310  0.75760430  0.65063592  1
  He  He44  1  0.53506178  0.98229367  0.09814715  1
  He  He45  1  0.03506178  0.01770633  0.40185285  1
  He  He46  1  0.46493822  0.01770633  0.90185285  1
  He  He47  1  0.96493822  0.98229367  0.59814715  1
  He  He48  1  0.11039515  0.92846031  0.12687665  1
  He  He49  1  0.61039515  0.07153969  0.37312335  1
  He  He50  1  0.88960485  0.07153969  0.87312335  1
  He  He51  1  0.38960485  0.92846031  0.62687665  1
  He  He52  1  0.41639443  0.96898486  0.21627299  1
  He  He53  1  0.91639443  0.03101514  0.28372701  1
  He  He54  1  0.58360557  0.03101514  0.78372701  1
  He  He55  1  0.08360557  0.96898486  0.71627299  1
  Li  Li56  1  0.07160638  0.69904252  0.98554550  1
  Li  Li57  1  0.57160638  0.30095748  0.51445450  1
  Li  Li58  1  0.92839362  0.30095748  0.01445450  1
  Li  Li59  1  0.42839362  0.69904252  0.48554550  1
  Li  Li60  1  0.41061372  0.35401180  0.18360571  1
  Li  Li61  1  0.91061372  0.64598820  0.31639429  1
  Li  Li62  1  0.58938628  0.64598820  0.81639429  1
  Li  Li63  1  0.08938628  0.35401180  0.68360571  1
  Li  Li64  1  0.35459326  0.91454908  0.15218427  1
  Li  Li65  1  0.85459326  0.08545092  0.34781573  1
  Li  Li66  1  0.64540674  0.08545092  0.84781573  1
  Li  Li67  1  0.14540674  0.91454908  0.65218427  1
