# generated using pymatgen
data_HHe2Li6
_symmetry_space_group_name_H-M   'P 1'
_cell_length_a   5.14286508
_cell_length_b   5.86459195
_cell_length_c   14.60809147
_cell_angle_alpha   90.00000000
_cell_angle_beta   90.00000000
_cell_angle_gamma   90.00000000
_symmetry_Int_Tables_number   1
_chemical_formula_structural   HHe2Li6
_chemical_formula_sum   'H4 He8 Li24'
_cell_volume   440.59180080
_cell_formula_units_Z   4
loop_
 _symmetry_equiv_pos_site_id
 _symmetry_equiv_pos_as_xyz
  1  'x, y, z'
loop_
 _atom_site_type_symbol
 _atom_site_label
 _atom_site_symmetry_multiplicity
 _atom_site_fract_x
 _atom_site_fract_y
 _atom_site_fract_z
 _atom_site_occupancy
  H  H0  1  0.25000000  0.67530850  -0.00000000  1
  H  H1  1  0.75000000  0.82469150  0.50000000  1
  H  H2  1  0.75000000  0.32469150  0.00000000  1
  H  H3  1  0.25000000  0.17530850  0.50000000  1
  He  He4  1  0.23645877  0.67777400  0.33728407  1
  He  He5  1  0.73645877  0.82222600  0.16271593  1
  He  He6  1  0.26354123  0.67777400  0.66271593  1
  He  He7  1  0.76354123  0.82222600  0.83728407  1
  He  He8  1  0.76354123  0.32222600  0.66271593  1
  He  He9  1  0.26354123  0.17777400  0.83728407  1
  He  He10  1  0.73645877  0.32222600  0.33728407  1
  He  He11  1  0.23645877  0.17777400  0.16271593  1
  Li  Li12  1  0.05792887  0.90064033  0.09971908  1
  Li  Li13  1  0.55792887  0.59935967  0.40028092  1
  Li  Li14  1  0.44207113  0.90064033  0.90028092  1
  Li  Li15  1  0.94207113  0.59935967  0.59971908  1
  Li  Li16  1  0.94207113  0.09935967  0.90028092  1
  Li  Li17  1  0.44207113  0.40064033  0.59971908  1
  Li  Li18  1  0.55792887  0.09935967  0.09971908  1
  Li  Li19  1  0.05792887  0.40064033  0.40028092  1
  Li  Li20  1  0.09541511  0.88112823  0.41798436  1
  Li  Li21  1  0.59541511  0.61887177  0.08201564  1
  Li  Li22  1  0.40458489  0.88112823  0.58201564  1
  Li  Li23  1  0.90458489  0.61887177  0.91798436  1
  Li  Li24  1  0.90458489  0.11887177  0.58201564  1
  Li  Li25  1  0.40458489  0.38112823  0.91798436  1
  Li  Li26  1  0.59541511  0.11887177  0.41798436  1
  Li  Li27  1  0.09541511  0.38112823  0.08201564  1
  Li  Li28  1  0.09060959  0.87111213  0.75562614  1
  Li  Li29  1  0.59060959  0.62888787  0.74437386  1
  Li  Li30  1  0.40939041  0.87111213  0.24437386  1
  Li  Li31  1  0.90939041  0.62888787  0.25562614  1
  Li  Li32  1  0.90939041  0.12888787  0.24437386  1
  Li  Li33  1  0.40939041  0.37111213  0.25562614  1
  Li  Li34  1  0.59060959  0.12888787  0.75562614  1
  Li  Li35  1  0.09060959  0.37111213  0.74437386  1
