# generated using pymatgen
data_HHe2
_symmetry_space_group_name_H-M   'P 1'
_cell_length_a   7.11342855
_cell_length_b   7.11344161
_cell_length_c   7.93896257
_cell_angle_alpha   77.09036488
_cell_angle_beta   77.09013611
_cell_angle_gamma   89.99496337
_symmetry_Int_Tables_number   1
_chemical_formula_structural   HHe2
_chemical_formula_sum   'H8 He16'
_cell_volume   381.14219107
_cell_formula_units_Z   8
loop_
 _symmetry_equiv_pos_site_id
 _symmetry_equiv_pos_as_xyz
  1  'x, y, z'
loop_
 _atom_site_type_symbol
 _atom_site_label
 _atom_site_symmetry_multiplicity
 _atom_site_fract_x
 _atom_site_fract_y
 _atom_site_fract_z
 _atom_site_occupancy
  H  H0  1  0.04735003  0.29368916  0.82309925  1
  H  H1  1  0.54047183  0.29289348  0.82639165  1
  H  H2  1  0.82765311  0.83131230  0.67691271  1
  H  H3  1  0.33453010  0.83210774  0.67362031  1
  H  H4  1  0.16869317  0.17235297  0.32309783  1
  H  H5  1  0.16789854  0.66547039  0.32639432  1
  H  H6  1  0.70711011  0.45953548  0.17361865  1
  H  H7  1  0.70631425  0.95265467  0.17691377  1
  He  He8  1  0.99463774  0.00536697  0.00000748  1
  He  He9  1  0.04481370  0.79374291  0.82899586  1
  He  He10  1  0.50420420  0.00477856  0.00275032  1
  He  He11  1  0.99522541  0.49580168  0.99726004  1
  He  He12  1  0.50513627  0.49487056  0.00000364  1
  He  He13  1  0.53971038  0.79246396  0.83348962  1
  He  He14  1  0.83018887  0.33125867  0.67101630  1
  He  He15  1  0.33529264  0.33253728  0.66652060  1
  He  He16  1  0.88036845  0.11963556  0.50000394  1
  He  He17  1  0.37080274  0.12022297  0.49726009  1
  He  He18  1  0.87978092  0.62920013  0.50275268  1
  He  He19  1  0.36987089  0.63013138  0.50000886  1
  He  He20  1  0.66874402  0.16981790  0.32899346  1
  He  He21  1  0.66746570  0.66471283  0.33349308  1
  He  He22  1  0.20754293  0.46029398  0.16651818  1
  He  He23  1  0.20626397  0.95518846  0.17101734  1
