# generated using pymatgen
data_H3He3LiBe
_symmetry_space_group_name_H-M   'P 1'
_cell_length_a   6.82014652
_cell_length_b   11.26134514
_cell_length_c   13.67224174
_cell_angle_alpha   90.00000000
_cell_angle_beta   90.00000000
_cell_angle_gamma   90.00000000
_symmetry_Int_Tables_number   1
_chemical_formula_structural   H3He3LiBe
_chemical_formula_sum   'H12 He12 Li4 Be4'
_cell_volume   1050.08318054
_cell_formula_units_Z   4
loop_
 _symmetry_equiv_pos_site_id
 _symmetry_equiv_pos_as_xyz
  1  'x, y, z'
loop_
 _atom_site_type_symbol
 _atom_site_label
 _atom_site_symmetry_multiplicity
 _atom_site_fract_x
 _atom_site_fract_y
 _atom_site_fract_z
 _atom_site_occupancy
  H  H0  1  0.23476483  0.44416456  0.38365612  1
  H  H1  1  0.26523517  0.55583544  0.88365612  1
  H  H2  1  0.76523517  0.94416456  0.61634388  1
  H  H3  1  0.73476483  0.05583544  0.11634388  1
  H  H4  1  0.76523517  0.55583544  0.61634388  1
  H  H5  1  0.73476483  0.44416456  0.11634388  1
  H  H6  1  0.23476483  0.05583544  0.38365612  1
  H  H7  1  0.26523517  0.94416456  0.88365612  1
  H  H8  1  0.22269263  0.75000000  0.13479335  1
  H  H9  1  0.27730737  0.25000000  0.63479335  1
  H  H10  1  0.77730737  0.25000000  0.86520665  1
  H  H11  1  0.72269263  0.75000000  0.36520665  1
  He  He12  1  0.22171662  0.75000000  0.37332554  1
  He  He13  1  0.27828338  0.25000000  0.87332554  1
  He  He14  1  0.77828338  0.25000000  0.62667446  1
  He  He15  1  0.72171662  0.75000000  0.12667446  1
  He  He16  1  0.25785057  0.95501296  0.63189292  1
  He  He17  1  0.24214943  0.04498704  0.13189292  1
  He  He18  1  0.74214943  0.45501296  0.36810708  1
  He  He19  1  0.75785057  0.54498704  0.86810708  1
  He  He20  1  0.74214943  0.04498704  0.36810708  1
  He  He21  1  0.75785057  0.95501296  0.86810708  1
  He  He22  1  0.25785057  0.54498704  0.63189292  1
  He  He23  1  0.24214943  0.45501296  0.13189292  1
  Li  Li24  1  0.65972544  0.75000000  0.54482070  1
  Li  Li25  1  0.84027456  0.25000000  0.04482070  1
  Li  Li26  1  0.34027456  0.25000000  0.45517930  1
  Li  Li27  1  0.15972544  0.75000000  0.95517930  1
  Be  Be28  1  0.38348426  0.75000000  0.55410604  1
  Be  Be29  1  0.11651574  0.25000000  0.05410604  1
  Be  Be30  1  0.61651574  0.25000000  0.44589396  1
  Be  Be31  1  0.88348426  0.75000000  0.94589396  1
