# generated using pymatgen
data_HHe3Li
_symmetry_space_group_name_H-M   'P 1'
_cell_length_a   6.85269677
_cell_length_b   6.85269677
_cell_length_c   6.85269677
_cell_angle_alpha   61.07769789
_cell_angle_beta   61.07769789
_cell_angle_gamma   61.07769789
_symmetry_Int_Tables_number   1
_chemical_formula_structural   HHe3Li
_chemical_formula_sum   'H2 He6 Li2'
_cell_volume   233.06695270
_cell_formula_units_Z   2
loop_
 _symmetry_equiv_pos_site_id
 _symmetry_equiv_pos_as_xyz
  1  'x, y, z'
loop_
 _atom_site_type_symbol
 _atom_site_label
 _atom_site_symmetry_multiplicity
 _atom_site_fract_x
 _atom_site_fract_y
 _atom_site_fract_z
 _atom_site_occupancy
  H  H0  1  0.24020480  0.24020480  0.24020480  1
  H  H1  1  0.74020480  0.74020480  0.74020480  1
  He  He2  1  0.27159889  0.79199418  0.68584136  1
  He  He3  1  0.68584136  0.27159889  0.79199418  1
  He  He4  1  0.79199418  0.68584136  0.27159889  1
  He  He5  1  0.29199418  0.77159889  0.18584136  1
  He  He6  1  0.77159889  0.18584136  0.29199418  1
  He  He7  1  0.18584136  0.29199418  0.77159889  1
  Li  Li8  1  0.99556076  0.99556076  0.99556076  1
  Li  Li9  1  0.49556076  0.49556076  0.49556076  1
