# generated using pymatgen
data_HHe2
_symmetry_space_group_name_H-M   'P 1'
_cell_length_a   9.64477016
_cell_length_b   9.64451612
_cell_length_c   9.64475398
_cell_angle_alpha   81.63469110
_cell_angle_beta   81.63550818
_cell_angle_gamma   81.63748561
_symmetry_Int_Tables_number   1
_chemical_formula_structural   HHe2
_chemical_formula_sum   'H9 He18'
_cell_volume   871.05381090
_cell_formula_units_Z   9
loop_
 _symmetry_equiv_pos_site_id
 _symmetry_equiv_pos_as_xyz
  1  'x, y, z'
loop_
 _atom_site_type_symbol
 _atom_site_label
 _atom_site_symmetry_multiplicity
 _atom_site_fract_x
 _atom_site_fract_y
 _atom_site_fract_z
 _atom_site_occupancy
  H  H0  1  0.57828319  0.91137509  0.24292806  1
  H  H1  1  0.24382017  0.57783567  0.91095311  1
  H  H2  1  0.91192563  0.24335626  0.57737652  1
  H  H3  1  0.87673924  0.54398125  0.20904248  1
  H  H4  1  0.20986580  0.87617428  0.54339634  1
  H  H5  1  0.54432200  0.20942599  0.87574370  1
  H  H6  1  0.20747911  0.20704935  0.20657729  1
  H  H7  1  0.54259527  0.54215171  0.54169249  1
  H  H8  1  0.86654862  0.86611301  0.86561183  1
  He  He9  1  0.76640181  0.08827327  0.05928497  1
  He  He10  1  0.06021664  0.76607627  0.08774617  1
  He  He11  1  0.08876083  0.05971640  0.76552049  1
  He  He12  1  0.09720490  0.42764566  0.39706876  1
  He  He13  1  0.39799506  0.09660649  0.42720951  1
  He  He14  1  0.42810476  0.39754074  0.09620483  1
  He  He15  1  0.42940295  0.76180558  0.73315664  1
  He  He16  1  0.73411685  0.42896415  0.76130845  1
  He  He17  1  0.76223558  0.73369280  0.42859424  1
  He  He18  1  0.03217423  0.36706127  0.99957958  1
  He  He19  1  0.00043121  0.03176072  0.36653368  1
  He  He20  1  0.36740905  0.99998507  0.03137897  1
  He  He21  1  0.36612255  0.70016693  0.33413585  1
  He  He22  1  0.33503444  0.36568131  0.69977658  1
  He  He23  1  0.70077693  0.33463722  0.36525068  1
  He  He24  1  0.69440168  0.03537965  0.66177487  1
  He  He25  1  0.66274075  0.69395769  0.03494661  1
  He  He26  1  0.03581938  0.66221344  0.69353325  1
