# generated using pymatgen
data_HHeLi3
_symmetry_space_group_name_H-M   'P 1'
_cell_length_a   7.15947278
_cell_length_b   7.16333565
_cell_length_c   4.12964670
_cell_angle_alpha   87.78873580
_cell_angle_beta   91.15161742
_cell_angle_gamma   119.98193882
_symmetry_Int_Tables_number   1
_chemical_formula_structural   HHeLi3
_chemical_formula_sum   'H1 He1 Li3'
_cell_volume   183.31380535
_cell_formula_units_Z   1
loop_
 _symmetry_equiv_pos_site_id
 _symmetry_equiv_pos_as_xyz
  1  'x, y, z'
loop_
 _atom_site_type_symbol
 _atom_site_label
 _atom_site_symmetry_multiplicity
 _atom_site_fract_x
 _atom_site_fract_y
 _atom_site_fract_z
 _atom_site_occupancy
  H  H0  1  0.66576977  0.33058953  0.67921999  1
  He  He1  1  -0.00014123  0.99961689  0.27166367  1
  Li  Li2  1  0.66264906  0.65388837  0.19510302  1
  Li  Li3  1  0.34741151  0.00948846  0.19977679  1
  Li  Li4  1  0.99101089  0.33981675  0.19442654  1
