# generated using pymatgen
data_H2He2Li
_symmetry_space_group_name_H-M   'P 1'
_cell_length_a   7.56345214
_cell_length_b   7.56345214
_cell_length_c   7.01445793
_cell_angle_alpha   90.00000000
_cell_angle_beta   90.00000000
_cell_angle_gamma   90.00000000
_symmetry_Int_Tables_number   1
_chemical_formula_structural   H2He2Li
_chemical_formula_sum   'H8 He8 Li4'
_cell_volume   401.26773512
_cell_formula_units_Z   4
loop_
 _symmetry_equiv_pos_site_id
 _symmetry_equiv_pos_as_xyz
  1  'x, y, z'
loop_
 _atom_site_type_symbol
 _atom_site_label
 _atom_site_symmetry_multiplicity
 _atom_site_fract_x
 _atom_site_fract_y
 _atom_site_fract_z
 _atom_site_occupancy
  H  H0  1  0.37041278  0.37041278  0.29373694  1
  H  H1  1  0.62958722  0.62958722  0.29373694  1
  H  H2  1  0.12958722  0.87041278  0.79373694  1
  H  H3  1  0.87041278  0.12958722  0.79373694  1
  H  H4  1  0.12958722  0.87041278  0.20626306  1
  H  H5  1  0.87041278  0.12958722  0.20626306  1
  H  H6  1  0.37041278  0.37041278  0.70626306  1
  H  H7  1  0.62958722  0.62958722  0.70626306  1
  He  He8  1  0.19573887  0.19573887  -0.00000000  1
  He  He9  1  0.80426113  0.80426113  -0.00000000  1
  He  He10  1  0.30426113  0.69573887  0.50000000  1
  He  He11  1  0.69573887  0.30426113  0.50000000  1
  He  He12  1  0.35309046  0.64690954  0.00000000  1
  He  He13  1  0.64690954  0.35309046  0.00000000  1
  He  He14  1  0.85309046  0.85309046  0.50000000  1
  He  He15  1  0.14690954  0.14690954  0.50000000  1
  Li  Li16  1  -0.00000000  0.50000000  0.25000000  1
  Li  Li17  1  -0.00000000  0.50000000  0.75000000  1
  Li  Li18  1  0.50000000  0.00000000  0.25000000  1
  Li  Li19  1  0.50000000  -0.00000000  0.75000000  1
