# generated using pymatgen
data_HHeLi
_symmetry_space_group_name_H-M   'P 1'
_cell_length_a   3.90613273
_cell_length_b   6.51562264
_cell_length_c   7.43100081
_cell_angle_alpha   90.00000000
_cell_angle_beta   90.00000000
_cell_angle_gamma   90.00000000
_symmetry_Int_Tables_number   1
_chemical_formula_structural   HHeLi
_chemical_formula_sum   'H4 He4 Li4'
_cell_volume   189.12556112
_cell_formula_units_Z   4
loop_
 _symmetry_equiv_pos_site_id
 _symmetry_equiv_pos_as_xyz
  1  'x, y, z'
loop_
 _atom_site_type_symbol
 _atom_site_label
 _atom_site_symmetry_multiplicity
 _atom_site_fract_x
 _atom_site_fract_y
 _atom_site_fract_z
 _atom_site_occupancy
  H  H0  1  0.25000000  0.01936310  0.81350490  1
  H  H1  1  0.75000000  0.48063690  0.31350490  1
  H  H2  1  0.75000000  0.98063690  0.18649510  1
  H  H3  1  0.25000000  0.51936310  0.68649510  1
  He  He4  1  0.25000000  0.14741820  0.43264979  1
  He  He5  1  0.75000000  0.35258180  0.93264979  1
  He  He6  1  0.75000000  0.85258180  0.56735021  1
  He  He7  1  0.25000000  0.64741820  0.06735021  1
  Li  Li8  1  0.25000000  0.77221203  0.38470993  1
  Li  Li9  1  0.75000000  0.72778797  0.88470993  1
  Li  Li10  1  0.75000000  0.22778797  0.61529007  1
  Li  Li11  1  0.25000000  0.27221203  0.11529007  1
