# generated using pymatgen
data_HHe3Li
_symmetry_space_group_name_H-M   'P 1'
_cell_length_a   4.23233887
_cell_length_b   4.76554610
_cell_length_c   8.44084180
_cell_angle_alpha   103.91521347
_cell_angle_beta   90.00000000
_cell_angle_gamma   90.00000000
_symmetry_Int_Tables_number   1
_chemical_formula_structural   HHe3Li
_chemical_formula_sum   'H2 He6 Li2'
_cell_volume   165.25047573
_cell_formula_units_Z   2
loop_
 _symmetry_equiv_pos_site_id
 _symmetry_equiv_pos_as_xyz
  1  'x, y, z'
loop_
 _atom_site_type_symbol
 _atom_site_label
 _atom_site_symmetry_multiplicity
 _atom_site_fract_x
 _atom_site_fract_y
 _atom_site_fract_z
 _atom_site_occupancy
  H  H0  1  0.25000000  0.33574059  0.68701355  1
  H  H1  1  0.75000000  0.66425941  0.31298645  1
  He  He2  1  0.25000000  0.77331998  0.54433136  1
  He  He3  1  0.75000000  0.22668002  0.45566864  1
  He  He4  1  0.25000000  -0.02376469  0.93714479  1
  He  He5  1  0.75000000  0.02376469  0.06285521  1
  He  He6  1  0.25000000  0.58520064  0.15385057  1
  He  He7  1  0.75000000  0.41479936  0.84614943  1
  Li  Li8  1  0.00000000  0.00000000  -0.00000000  1
  Li  Li9  1  0.50000000  0.00000000  0.00000000  1
