# generated using pymatgen
data_H4He
_symmetry_space_group_name_H-M   'P 1'
_cell_length_a   6.96797822
_cell_length_b   6.96797822
_cell_length_c   3.91013277
_cell_angle_alpha   90.00000000
_cell_angle_beta   90.00000000
_cell_angle_gamma   90.00000000
_symmetry_Int_Tables_number   1
_chemical_formula_structural   H4He
_chemical_formula_sum   'H16 He4'
_cell_volume   189.84758302
_cell_formula_units_Z   4
loop_
 _symmetry_equiv_pos_site_id
 _symmetry_equiv_pos_as_xyz
  1  'x, y, z'
loop_
 _atom_site_type_symbol
 _atom_site_label
 _atom_site_symmetry_multiplicity
 _atom_site_fract_x
 _atom_site_fract_y
 _atom_site_fract_z
 _atom_site_occupancy
  H  H0  1  0.00000000  0.00000000  0.19968240  1
  H  H1  1  0.50000000  0.50000000  0.80031760  1
  H  H2  1  -0.00000000  0.00000000  0.80031760  1
  H  H3  1  0.50000000  0.50000000  0.19968240  1
  H  H4  1  0.91249711  0.41249711  0.50000000  1
  H  H5  1  0.08750289  0.58750289  0.50000000  1
  H  H6  1  0.58750289  0.91249711  0.50000000  1
  H  H7  1  0.41249711  0.08750289  0.50000000  1
  H  H8  1  0.18160215  0.02583423  0.50000000  1
  H  H9  1  0.81839785  0.97416577  0.50000000  1
  H  H10  1  0.97416577  0.18160215  0.50000000  1
  H  H11  1  0.02583423  0.81839785  0.50000000  1
  H  H12  1  0.31839785  0.52583423  0.50000000  1
  H  H13  1  0.68160215  0.47416577  0.50000000  1
  H  H14  1  0.52583423  0.68160215  0.50000000  1
  H  H15  1  0.47416577  0.31839785  0.50000000  1
  He  He16  1  0.37863242  0.87863242  -0.00000000  1
  He  He17  1  0.62136758  0.12136758  0.00000000  1
  He  He18  1  0.12136758  0.37863242  0.00000000  1
  He  He19  1  0.87863242  0.62136758  -0.00000000  1
