# generated using pymatgen
data_H3HeLi6Be
_symmetry_space_group_name_H-M   'P 1'
_cell_length_a   6.56874653
_cell_length_b   6.56878356
_cell_length_c   6.56870313
_cell_angle_alpha   90.50074233
_cell_angle_beta   90.49900252
_cell_angle_gamma   90.50174376
_symmetry_Int_Tables_number   1
_chemical_formula_structural   H3HeLi6Be
_chemical_formula_sum   'H6 He2 Li12 Be2'
_cell_volume   283.39820007
_cell_formula_units_Z   2
loop_
 _symmetry_equiv_pos_site_id
 _symmetry_equiv_pos_as_xyz
  1  'x, y, z'
loop_
 _atom_site_type_symbol
 _atom_site_label
 _atom_site_symmetry_multiplicity
 _atom_site_fract_x
 _atom_site_fract_y
 _atom_site_fract_z
 _atom_site_occupancy
  H  H0  1  0.10363629  0.39624433  0.75001384  1
  H  H1  1  0.39606904  0.75000857  0.10383524  1
  H  H2  1  0.74989539  0.10380500  0.39621950  1
  H  H3  1  0.89609355  0.60379101  0.25002319  1
  H  H4  1  0.60369510  0.25001705  0.89621379  1
  H  H5  1  0.24985621  0.89621951  0.60380109  1
  He  He6  1  0.24998300  0.24999252  0.24996852  1
  He  He7  1  0.74974028  0.75007299  0.75004892  1
  Li  Li8  1  0.94258268  0.28995220  0.06664155  1
  Li  Li9  1  0.28982650  0.06660124  0.94266827  1
  Li  Li10  1  0.06652109  0.94268584  0.28995800  1
  Li  Li11  1  0.55723062  0.43340800  0.21006998  1
  Li  Li12  1  0.20992826  0.55731817  0.43337270  1
  Li  Li13  1  0.43328298  0.21005998  0.55733928  1
  Li  Li14  1  0.05716736  0.71007399  0.93338884  1
  Li  Li15  1  0.70993260  0.93342887  0.05736434  1
  Li  Li16  1  0.93323225  0.05734355  0.71007543  1
  Li  Li17  1  0.44251803  0.56662247  0.78997179  1
  Li  Li18  1  0.78981947  0.44271241  0.56666730  1
  Li  Li19  1  0.56646552  0.78996120  0.44269916  1
  Be  Be20  1  0.99985143  0.00001791  0.00002120  1
  Be  Be21  1  0.49988890  0.50002992  0.50000483  1
