# generated using pymatgen
data_H2He4Li5
_symmetry_space_group_name_H-M   'P 1'
_cell_length_a   9.50646708
_cell_length_b   9.50646708
_cell_length_c   9.50646708
_cell_angle_alpha   148.57409367
_cell_angle_beta   130.43027916
_cell_angle_gamma   59.87836418
_symmetry_Int_Tables_number   1
_chemical_formula_structural   H2He4Li5
_chemical_formula_sum   'H4 He8 Li10'
_cell_volume   338.08465923
_cell_formula_units_Z   2
loop_
 _symmetry_equiv_pos_site_id
 _symmetry_equiv_pos_as_xyz
  1  'x, y, z'
loop_
 _atom_site_type_symbol
 _atom_site_label
 _atom_site_symmetry_multiplicity
 _atom_site_fract_x
 _atom_site_fract_y
 _atom_site_fract_z
 _atom_site_occupancy
  H  H0  1  0.30662162  0.05662162  0.75000000  1
  H  H1  1  0.69337838  0.44337838  0.75000000  1
  H  H2  1  0.69337838  0.94337838  0.25000000  1
  H  H3  1  0.30662162  0.55662162  0.25000000  1
  He  He4  1  0.25451843  0.14001211  0.11450631  1
  He  He5  1  0.74548157  0.85998789  0.88549369  1
  He  He6  1  0.97449420  0.35998789  0.61450631  1
  He  He7  1  0.02550580  0.64001211  0.38549369  1
  He  He8  1  0.68197346  0.43604800  0.24592546  1
  He  He9  1  0.31802654  0.56395200  0.75407454  1
  He  He10  1  0.80987746  0.06395200  0.74592546  1
  He  He11  1  0.19012254  0.93604800  0.25407454  1
  Li  Li12  1  0.57621368  0.28287101  0.29334267  1
  Li  Li13  1  0.42378632  0.71712899  0.70665733  1
  Li  Li14  1  0.01047166  0.21712899  0.79334267  1
  Li  Li15  1  0.98952834  0.78287101  0.20665733  1
  Li  Li16  1  0.48459601  0.06693530  0.41766071  1
  Li  Li17  1  0.51540399  0.93306470  0.58233929  1
  Li  Li18  1  0.35072541  0.43306470  0.91766071  1
  Li  Li19  1  0.64927459  0.56693530  0.08233929  1
  Li  Li20  1  -0.00000000  0.75000000  0.75000000  1
  Li  Li21  1  -0.00000000  0.25000000  0.25000000  1
