# generated using pymatgen
data_H8He2Li3
_symmetry_space_group_name_H-M   'P 1'
_cell_length_a   6.11278976
_cell_length_b   6.11278976
_cell_length_c   9.59203706
_cell_angle_alpha   71.30087309
_cell_angle_beta   71.30087309
_cell_angle_gamma   87.51168789
_symmetry_Int_Tables_number   1
_chemical_formula_structural   H8He2Li3
_chemical_formula_sum   'H16 He4 Li6'
_cell_volume   320.87377276
_cell_formula_units_Z   2
loop_
 _symmetry_equiv_pos_site_id
 _symmetry_equiv_pos_as_xyz
  1  'x, y, z'
loop_
 _atom_site_type_symbol
 _atom_site_label
 _atom_site_symmetry_multiplicity
 _atom_site_fract_x
 _atom_site_fract_y
 _atom_site_fract_z
 _atom_site_occupancy
  H  H0  1  0.93601152  0.14140029  0.89384504  1
  H  H1  1  0.85859971  0.06398848  0.60615496  1
  H  H2  1  0.06398848  0.85859971  0.10615496  1
  H  H3  1  0.14140029  0.93601152  0.39384504  1
  H  H4  1  0.28600294  0.02266278  0.64291112  1
  H  H5  1  0.97733722  0.71399706  0.85708888  1
  H  H6  1  0.71399706  0.97733722  0.35708888  1
  H  H7  1  0.02266278  0.28600294  0.14291112  1
  H  H8  1  0.41825932  0.68604862  0.90935041  1
  H  H9  1  0.31395138  0.58174068  0.59064959  1
  H  H10  1  0.58174068  0.31395138  0.09064959  1
  H  H11  1  0.68604862  0.41825932  0.40935041  1
  H  H12  1  0.56946186  0.81837232  0.14340454  1
  H  H13  1  0.18162768  0.43053814  0.35659546  1
  H  H14  1  0.43053814  0.18162768  0.85659546  1
  H  H15  1  0.81837232  0.56946186  0.64340454  1
  He  He16  1  0.22204748  0.93772433  0.87315515  1
  He  He17  1  0.06227567  0.77795252  0.62684485  1
  He  He18  1  0.77795252  0.06227567  0.12684485  1
  He  He19  1  0.93772433  0.22204748  0.37315515  1
  Li  Li20  1  0.36056771  0.32803318  0.49629749  1
  Li  Li21  1  0.67196682  0.63943229  0.00370251  1
  Li  Li22  1  0.63943229  0.67196682  0.50370251  1
  Li  Li23  1  0.32803318  0.36056771  0.99629749  1
  Li  Li24  1  0.76196669  0.23803331  0.75000000  1
  Li  Li25  1  0.23803331  0.76196669  0.25000000  1
