# generated using pymatgen
data_HHeLi
_symmetry_space_group_name_H-M   'P 1'
_cell_length_a   4.02828103
_cell_length_b   6.24079636
_cell_length_c   6.95462758
_cell_angle_alpha   90.00000000
_cell_angle_beta   90.00000000
_cell_angle_gamma   90.00000000
_symmetry_Int_Tables_number   1
_chemical_formula_structural   HHeLi
_chemical_formula_sum   'H4 He4 Li4'
_cell_volume   174.83712287
_cell_formula_units_Z   4
loop_
 _symmetry_equiv_pos_site_id
 _symmetry_equiv_pos_as_xyz
  1  'x, y, z'
loop_
 _atom_site_type_symbol
 _atom_site_label
 _atom_site_symmetry_multiplicity
 _atom_site_fract_x
 _atom_site_fract_y
 _atom_site_fract_z
 _atom_site_occupancy
  H  H0  1  0.25000000  0.78639543  0.39432305  1
  H  H1  1  0.75000000  0.71360457  0.89432305  1
  H  H2  1  0.75000000  0.21360457  0.60567695  1
  H  H3  1  0.25000000  0.28639543  0.10567695  1
  He  He4  1  0.25000000  0.99985426  0.80185798  1
  He  He5  1  0.75000000  0.50014574  0.30185798  1
  He  He6  1  0.75000000  0.00014574  0.19814202  1
  He  He7  1  0.25000000  0.49985426  0.69814202  1
  Li  Li8  1  0.25000000  0.17274384  0.43309288  1
  Li  Li9  1  0.75000000  0.32725616  0.93309288  1
  Li  Li10  1  0.75000000  0.82725616  0.56690712  1
  Li  Li11  1  0.25000000  0.67274384  0.06690712  1
