# generated using pymatgen
data_H2
_symmetry_space_group_name_H-M   'P 1'
_cell_length_a   5.04027293
_cell_length_b   5.60901868
_cell_length_c   6.92122070
_cell_angle_alpha   90.00000000
_cell_angle_beta   90.00000000
_cell_angle_gamma   90.00000000
_symmetry_Int_Tables_number   1
_chemical_formula_structural   H2
_chemical_formula_sum   H28
_cell_volume   195.66972658
_cell_formula_units_Z   14
loop_
 _symmetry_equiv_pos_site_id
 _symmetry_equiv_pos_as_xyz
  1  'x, y, z'
loop_
 _atom_site_type_symbol
 _atom_site_label
 _atom_site_symmetry_multiplicity
 _atom_site_fract_x
 _atom_site_fract_y
 _atom_site_fract_z
 _atom_site_occupancy
  H  H0  1  0.15280966  0.59256829  0.79091291  1
  H  H1  1  0.84719034  0.40743171  0.79091291  1
  H  H2  1  0.34719034  0.09256829  0.70908709  1
  H  H3  1  0.65280966  0.90743171  0.70908709  1
  H  H4  1  0.84719034  0.40743171  0.20908709  1
  H  H5  1  0.15280966  0.59256829  0.20908709  1
  H  H6  1  0.65280966  0.90743171  0.29091291  1
  H  H7  1  0.34719034  0.09256829  0.29091291  1
  H  H8  1  0.64799466  0.72879577  0.50000000  1
  H  H9  1  0.35200534  0.27120423  0.50000000  1
  H  H10  1  0.85200534  0.22879577  -0.00000000  1
  H  H11  1  0.14799466  0.77120423  0.00000000  1
  H  H12  1  0.33564542  0.50803884  0.00000000  1
  H  H13  1  0.66435458  0.49196116  0.00000000  1
  H  H14  1  0.16435458  0.00803884  0.50000000  1
  H  H15  1  0.83564542  0.99196116  0.50000000  1
  H  H16  1  0.83940182  0.71887849  0.87435176  1
  H  H17  1  0.16059818  0.28112151  0.87435176  1
  H  H18  1  0.66059818  0.21887849  0.62564824  1
  H  H19  1  0.33940182  0.78112151  0.62564824  1
  H  H20  1  0.16059818  0.28112151  0.12564824  1
  H  H21  1  0.83940182  0.71887849  0.12564824  1
  H  H22  1  0.33940182  0.78112151  0.37435176  1
  H  H23  1  0.66059818  0.21887849  0.37435176  1
  H  H24  1  0.67015317  0.97939715  0.00000000  1
  H  H25  1  0.32984683  0.02060285  0.00000000  1
  H  H26  1  0.82984683  0.47939715  0.50000000  1
  H  H27  1  0.17015317  0.52060285  0.50000000  1
