# generated using pymatgen
data_HHe
_symmetry_space_group_name_H-M   'P 1'
_cell_length_a   4.30712165
_cell_length_b   4.30716835
_cell_length_c   9.78675855
_cell_angle_alpha   90.00000000
_cell_angle_beta   90.00000000
_cell_angle_gamma   120.00200385
_symmetry_Int_Tables_number   1
_chemical_formula_structural   HHe
_chemical_formula_sum   'H3 He3'
_cell_volume   157.23155904
_cell_formula_units_Z   3
loop_
 _symmetry_equiv_pos_site_id
 _symmetry_equiv_pos_as_xyz
  1  'x, y, z'
loop_
 _atom_site_type_symbol
 _atom_site_label
 _atom_site_symmetry_multiplicity
 _atom_site_fract_x
 _atom_site_fract_y
 _atom_site_fract_z
 _atom_site_occupancy
  H  H0  1  0.00000000  0.50000000  0.83330512  1
  H  H1  1  0.50000000  0.50000000  0.16663758  1
  H  H2  1  0.50000000  0.00000000  0.49996613  1
  He  He3  1  0.00000000  0.50000000  0.33330275  1
  He  He4  1  0.50000000  0.50000000  0.66663775  1
  He  He5  1  0.50000000  0.00000000  0.99998399  1
