# generated using pymatgen
data_H2He11Li4
_symmetry_space_group_name_H-M   'P 1'
_cell_length_a   8.04031519
_cell_length_b   8.04031519
_cell_length_c   9.77595929
_cell_angle_alpha   52.99891053
_cell_angle_beta   52.99891053
_cell_angle_gamma   25.95645983
_symmetry_Int_Tables_number   1
_chemical_formula_structural   H2He11Li4
_chemical_formula_sum   'H2 He11 Li4'
_cell_volume   217.55135561
_cell_formula_units_Z   1
loop_
 _symmetry_equiv_pos_site_id
 _symmetry_equiv_pos_as_xyz
  1  'x, y, z'
loop_
 _atom_site_type_symbol
 _atom_site_label
 _atom_site_symmetry_multiplicity
 _atom_site_fract_x
 _atom_site_fract_y
 _atom_site_fract_z
 _atom_site_occupancy
  H  H0  1  0.12327507  0.12327507  0.26165177  1
  H  H1  1  0.87672493  0.87672493  0.73834823  1
  He  He2  1  0.00000000  0.00000000  -0.00000000  1
  He  He3  1  0.34827005  0.34827005  0.22026579  1
  He  He4  1  0.65172995  0.65172995  0.77973421  1
  He  He5  1  0.16465165  0.16465165  0.59342023  1
  He  He6  1  0.83534835  0.83534835  0.40657977  1
  He  He7  1  0.17987599  0.17987599  0.97345446  1
  He  He8  1  0.82012401  0.82012401  0.02654554  1
  He  He9  1  0.31743802  0.31743802  0.63701866  1
  He  He10  1  0.68256198  0.68256198  0.36298134  1
  He  He11  1  0.49974752  0.49974752  0.30922663  1
  He  He12  1  0.50025248  0.50025248  0.69077337  1
  Li  Li13  1  0.14669805  0.14669805  0.84414904  1
  Li  Li14  1  0.85330195  0.85330195  0.15585096  1
  Li  Li15  1  0.36648257  0.36648257  0.41936906  1
  Li  Li16  1  0.63351743  0.63351743  0.58063094  1
