# generated using pymatgen
data_HHe2
_symmetry_space_group_name_H-M   'P 1'
_cell_length_a   5.51328208
_cell_length_b   5.51328208
_cell_length_c   5.51328208
_cell_angle_alpha   102.12868820
_cell_angle_beta   102.12868820
_cell_angle_gamma   125.43533545
_symmetry_Int_Tables_number   1
_chemical_formula_structural   HHe2
_chemical_formula_sum   'H2 He4'
_cell_volume   121.35277188
_cell_formula_units_Z   2
loop_
 _symmetry_equiv_pos_site_id
 _symmetry_equiv_pos_as_xyz
  1  'x, y, z'
loop_
 _atom_site_type_symbol
 _atom_site_label
 _atom_site_symmetry_multiplicity
 _atom_site_fract_x
 _atom_site_fract_y
 _atom_site_fract_z
 _atom_site_occupancy
  H  H0  1  0.25000000  0.25000000  -0.00000000  1
  H  H1  1  0.75000000  0.75000000  0.00000000  1
  He  He2  1  0.34157764  0.84157764  0.18315528  1
  He  He3  1  0.65842236  0.15842236  0.81684472  1
  He  He4  1  0.84157764  0.65842236  0.50000000  1
  He  He5  1  0.15842236  0.34157764  0.50000000  1
