# generated using pymatgen
data_HHe6Li16Be
_symmetry_space_group_name_H-M   'P 1'
_cell_length_a   10.22231390
_cell_length_b   10.22231390
_cell_length_c   16.35190841
_cell_angle_alpha   79.24917512
_cell_angle_beta   79.24917512
_cell_angle_gamma   47.62018434
_symmetry_Int_Tables_number   1
_chemical_formula_structural   HHe6Li16Be
_chemical_formula_sum   'H2 He12 Li32 Be2'
_cell_volume   1235.69289081
_cell_formula_units_Z   2
loop_
 _symmetry_equiv_pos_site_id
 _symmetry_equiv_pos_as_xyz
  1  'x, y, z'
loop_
 _atom_site_type_symbol
 _atom_site_label
 _atom_site_symmetry_multiplicity
 _atom_site_fract_x
 _atom_site_fract_y
 _atom_site_fract_z
 _atom_site_occupancy
  H  H0  1  0.82113760  0.17886240  0.25000000  1
  H  H1  1  0.17886240  0.82113760  0.75000000  1
  He  He2  1  0.56514910  0.44666110  0.11303596  1
  He  He3  1  0.55333890  0.43485090  0.38696404  1
  He  He4  1  0.43485090  0.55333890  0.88696404  1
  He  He5  1  0.44666110  0.56514910  0.61303596  1
  He  He6  1  0.64018400  0.56612112  0.96494624  1
  He  He7  1  0.43387888  0.35981600  0.53505376  1
  He  He8  1  0.35981600  0.43387888  0.03505376  1
  He  He9  1  0.56612112  0.64018400  0.46494624  1
  He  He10  1  0.29512928  0.74121459  0.02308453  1
  He  He11  1  0.25878541  0.70487072  0.47691547  1
  He  He12  1  0.70487072  0.25878541  0.97691547  1
  He  He13  1  0.74121459  0.29512928  0.52308453  1
  Li  Li14  1  0.78368557  0.47912924  0.24205598  1
  Li  Li15  1  0.52087076  0.21631443  0.25794402  1
  Li  Li16  1  0.21631443  0.52087076  0.75794402  1
  Li  Li17  1  0.47912924  0.78368557  0.74205598  1
  Li  Li18  1  0.95756961  0.35920938  0.33373856  1
  Li  Li19  1  0.64079062  0.04243039  0.16626144  1
  Li  Li20  1  0.04243039  0.64079062  0.66626144  1
  Li  Li21  1  0.35920938  0.95756961  0.83373856  1
  Li  Li22  1  0.06730909  0.09841351  0.35082904  1
  Li  Li23  1  0.90158649  0.93269091  0.14917096  1
  Li  Li24  1  0.93269091  0.90158649  0.64917096  1
  Li  Li25  1  0.09841351  0.06730909  0.85082904  1
  Li  Li26  1  0.31780475  0.93583180  0.28678046  1
  Li  Li27  1  0.06416820  0.68219525  0.21321954  1
  Li  Li28  1  0.68219525  0.06416820  0.71321954  1
  Li  Li29  1  0.93583180  0.31780475  0.78678046  1
  Li  Li30  1  0.29774749  0.90046502  0.17154998  1
  Li  Li31  1  0.09953498  0.70225251  0.32845002  1
  Li  Li32  1  0.70225251  0.09953498  0.82845002  1
  Li  Li33  1  0.90046502  0.29774749  0.67154998  1
  Li  Li34  1  0.27472008  0.08626094  0.08253512  1
  Li  Li35  1  0.91373906  0.72527992  0.41746488  1
  Li  Li36  1  0.72527992  0.91373906  0.91746488  1
  Li  Li37  1  0.08626094  0.27472008  0.58253512  1
  Li  Li38  1  0.00915402  0.28632557  0.06288026  1
  Li  Li39  1  0.71367443  0.99084598  0.43711974  1
  Li  Li40  1  0.99084598  0.71367443  0.93711974  1
  Li  Li41  1  0.28632557  0.00915402  0.56288026  1
  Li  Li42  1  0.89990971  0.49846940  0.12754704  1
  Li  Li43  1  0.50153060  0.10009029  0.37245296  1
  Li  Li44  1  0.10009029  0.50153060  0.87245296  1
  Li  Li45  1  0.49846940  0.89990971  0.62754704  1
  Be  Be46  1  0.50000000  0.50000000  -0.00000000  1
  Be  Be47  1  0.50000000  0.50000000  0.50000000  1
