# generated using pymatgen
data_H5He2LiBe2B
_symmetry_space_group_name_H-M   'P 1'
_cell_length_a   7.63387569
_cell_length_b   9.68290989
_cell_length_c   14.37140489
_cell_angle_alpha   89.97460296
_cell_angle_beta   90.00000000
_cell_angle_gamma   90.00000000
_symmetry_Int_Tables_number   1
_chemical_formula_structural   H5He2LiBe2B
_chemical_formula_sum   'H20 He8 Li4 Be8 B4'
_cell_volume   1062.30727757
_cell_formula_units_Z   4
loop_
 _symmetry_equiv_pos_site_id
 _symmetry_equiv_pos_as_xyz
  1  'x, y, z'
loop_
 _atom_site_type_symbol
 _atom_site_label
 _atom_site_symmetry_multiplicity
 _atom_site_fract_x
 _atom_site_fract_y
 _atom_site_fract_z
 _atom_site_occupancy
  H  H0  1  0.08786931  0.74996139  0.20726465  1
  H  H1  1  0.58786931  0.25003861  0.29273535  1
  H  H2  1  0.91213069  0.25003861  0.79273535  1
  H  H3  1  0.41213069  0.74996139  0.70726465  1
  H  H4  1  0.62395253  0.74997185  0.25155254  1
  H  H5  1  0.12395253  0.25002815  0.24844746  1
  H  H6  1  0.37604747  0.25002815  0.74844746  1
  H  H7  1  0.87604747  0.74997185  0.75155254  1
  H  H8  1  0.54562843  0.75002608  0.00445679  1
  H  H9  1  0.04562843  0.24997392  0.49554321  1
  H  H10  1  0.45437157  0.24997392  0.99554321  1
  H  H11  1  0.95437157  0.75002608  0.50445679  1
  H  H12  1  0.80841302  0.01076673  0.10427522  1
  H  H13  1  0.30841302  0.98923327  0.39572478  1
  H  H14  1  0.19167963  0.51071791  0.89572409  1
  H  H15  1  0.69167963  0.48928209  0.60427591  1
  H  H16  1  0.19158698  0.98923327  0.89572478  1
  H  H17  1  0.69158698  0.01076673  0.60427522  1
  H  H18  1  0.80832037  0.48928209  0.10427591  1
  H  H19  1  0.30832037  0.51071791  0.39572409  1
  He  He20  1  0.04629619  0.83258679  0.96104075  1
  He  He21  1  0.54629619  0.16741321  0.53895925  1
  He  He22  1  0.95369681  0.33262491  0.03894585  1
  He  He23  1  0.45369681  0.66737509  0.46105415  1
  He  He24  1  0.95370381  0.16741321  0.03895925  1
  He  He25  1  0.45370381  0.83258679  0.46104075  1
  He  He26  1  0.04630319  0.66737509  0.96105415  1
  He  He27  1  0.54630319  0.33262491  0.53894585  1
  Li  Li28  1  0.81439310  0.75001833  0.10860609  1
  Li  Li29  1  0.31439310  0.24998167  0.39139391  1
  Li  Li30  1  0.18560690  0.24998167  0.89139391  1
  Li  Li31  1  0.68560690  0.75001833  0.60860609  1
  Be  Be32  1  0.87843764  -0.00204762  0.34714489  1
  Be  Be33  1  0.37843764  0.00204762  0.15285511  1
  Be  Be34  1  0.12154665  0.49793886  0.65284464  1
  Be  Be35  1  0.62154665  0.50206114  0.84715536  1
  Be  Be36  1  0.12156236  0.00204762  0.65285511  1
  Be  Be37  1  0.62156236  -0.00204762  0.84714489  1
  Be  Be38  1  0.87845335  0.50206114  0.34715536  1
  Be  Be39  1  0.37845335  0.49793886  0.15284464  1
  B  B40  1  0.97910836  0.74991246  0.98086401  1
  B  B41  1  0.47910836  0.25008754  0.51913599  1
  B  B42  1  0.02089164  0.25008754  0.01913599  1
  B  B43  1  0.52089164  0.74991246  0.48086401  1
