# generated using pymatgen
data_H2HeLi4
_symmetry_space_group_name_H-M   'P 1'
_cell_length_a   6.86151174
_cell_length_b   6.86151174
_cell_length_c   6.86151174
_cell_angle_alpha   129.38328233
_cell_angle_beta   129.38328233
_cell_angle_gamma   74.39463312
_symmetry_Int_Tables_number   1
_chemical_formula_structural   H2HeLi4
_chemical_formula_sum   'H2 He1 Li4'
_cell_volume   188.09981831
_cell_formula_units_Z   1
loop_
 _symmetry_equiv_pos_site_id
 _symmetry_equiv_pos_as_xyz
  1  'x, y, z'
loop_
 _atom_site_type_symbol
 _atom_site_label
 _atom_site_symmetry_multiplicity
 _atom_site_fract_x
 _atom_site_fract_y
 _atom_site_fract_z
 _atom_site_occupancy
  H  H0  1  0.50000000  0.50000000  0.00000000  1
  H  H1  1  0.25000000  0.75000000  0.50000000  1
  He  He2  1  0.00000000  -0.00000000  0.00000000  1
  Li  Li3  1  0.13024733  0.58803889  0.99559546  1
  Li  Li4  1  0.59244343  0.13465187  0.00440454  1
  Li  Li5  1  0.86534813  0.86975267  0.45779156  1
  Li  Li6  1  0.41196111  0.40755657  0.54220844  1
