# generated using pymatgen
data_HHeLi4
_symmetry_space_group_name_H-M   'P 1'
_cell_length_a   6.46332875
_cell_length_b   6.46332875
_cell_length_c   6.46332875
_cell_angle_alpha   130.55420412
_cell_angle_beta   130.55420412
_cell_angle_gamma   72.52231907
_symmetry_Int_Tables_number   1
_chemical_formula_structural   HHeLi4
_chemical_formula_sum   'H2 He2 Li8'
_cell_volume   152.32523284
_cell_formula_units_Z   2
loop_
 _symmetry_equiv_pos_site_id
 _symmetry_equiv_pos_as_xyz
  1  'x, y, z'
loop_
 _atom_site_type_symbol
 _atom_site_label
 _atom_site_symmetry_multiplicity
 _atom_site_fract_x
 _atom_site_fract_y
 _atom_site_fract_z
 _atom_site_occupancy
  H  H0  1  0.75000000  0.75000000  -0.00000000  1
  H  H1  1  0.25000000  0.25000000  -0.00000000  1
  He  He2  1  0.00000000  0.50000000  0.50000000  1
  He  He3  1  0.50000000  -0.00000000  0.50000000  1
  Li  Li4  1  0.69063604  0.19063604  0.13528917  1
  Li  Li5  1  0.05534687  0.55534687  0.86471083  1
  Li  Li6  1  0.55534687  0.69063604  0.50000000  1
  Li  Li7  1  0.19063604  0.05534687  0.50000000  1
  Li  Li8  1  0.80936396  0.94465313  0.50000000  1
  Li  Li9  1  0.44465313  0.30936396  0.50000000  1
  Li  Li10  1  0.94465313  0.44465313  0.13528917  1
  Li  Li11  1  0.30936396  0.80936396  0.86471083  1
