# generated using pymatgen
data_HHe2
_symmetry_space_group_name_H-M   'P 1'
_cell_length_a   3.73817285
_cell_length_b   7.22239911
_cell_length_c   8.27991840
_cell_angle_alpha   90.00000000
_cell_angle_beta   90.00000000
_cell_angle_gamma   90.00000000
_symmetry_Int_Tables_number   1
_chemical_formula_structural   HHe2
_chemical_formula_sum   'H4 He8'
_cell_volume   223.54600830
_cell_formula_units_Z   4
loop_
 _symmetry_equiv_pos_site_id
 _symmetry_equiv_pos_as_xyz
  1  'x, y, z'
loop_
 _atom_site_type_symbol
 _atom_site_label
 _atom_site_symmetry_multiplicity
 _atom_site_fract_x
 _atom_site_fract_y
 _atom_site_fract_z
 _atom_site_occupancy
  H  H0  1  0.25000000  0.24780156  0.35102137  1
  H  H1  1  0.75000000  0.25219844  0.85102137  1
  H  H2  1  0.75000000  0.75219844  0.64897863  1
  H  H3  1  0.25000000  0.74780156  0.14897863  1
  He  He4  1  0.25000000  0.87333111  0.44144360  1
  He  He5  1  0.75000000  0.62666889  0.94144360  1
  He  He6  1  0.75000000  0.12666889  0.55855640  1
  He  He7  1  0.25000000  0.37333111  0.05855640  1
  He  He8  1  0.25000000  0.45090165  0.64713344  1
  He  He9  1  0.75000000  0.04909835  0.14713344  1
  He  He10  1  0.75000000  0.54909835  0.35286656  1
  He  He11  1  0.25000000  0.95090165  0.85286656  1
