# generated using pymatgen
data_H5He6Li
_symmetry_space_group_name_H-M   'P 1'
_cell_length_a   5.10584677
_cell_length_b   5.10584677
_cell_length_c   5.09173382
_cell_angle_alpha   80.06071541
_cell_angle_beta   80.06071541
_cell_angle_gamma   119.78206520
_symmetry_Int_Tables_number   1
_chemical_formula_structural   H5He6Li
_chemical_formula_sum   'H5 He6 Li1'
_cell_volume   108.17329799
_cell_formula_units_Z   1
loop_
 _symmetry_equiv_pos_site_id
 _symmetry_equiv_pos_as_xyz
  1  'x, y, z'
loop_
 _atom_site_type_symbol
 _atom_site_label
 _atom_site_symmetry_multiplicity
 _atom_site_fract_x
 _atom_site_fract_y
 _atom_site_fract_z
 _atom_site_occupancy
  H  H0  1  0.66683123  0.33316877  0.00000000  1
  H  H1  1  0.33316877  0.66683123  -0.00000000  1
  H  H2  1  0.50000000  0.50000000  0.50000000  1
  H  H3  1  0.82366457  0.17633543  0.50000000  1
  H  H4  1  0.17633543  0.82366457  0.50000000  1
  He  He5  1  0.07706930  0.38266329  0.76615054  1
  He  He6  1  0.61733671  0.92293070  0.23384946  1
  He  He7  1  0.92293070  0.61733671  0.23384946  1
  He  He8  1  0.38266329  0.07706930  0.76615054  1
  He  He9  1  0.22747765  0.22747765  0.22526124  1
  He  He10  1  0.77252235  0.77252235  0.77473876  1
  Li  Li11  1  0.00000000  0.00000000  0.00000000  1
