# generated using pymatgen
data_HHeLi2
_symmetry_space_group_name_H-M   'P 1'
_cell_length_a   8.24215555
_cell_length_b   8.24215555
_cell_length_c   3.96567404
_cell_angle_alpha   90.00000000
_cell_angle_beta   90.00000000
_cell_angle_gamma   151.79031961
_symmetry_Int_Tables_number   1
_chemical_formula_structural   HHeLi2
_chemical_formula_sum   'H2 He2 Li4'
_cell_volume   127.34559166
_cell_formula_units_Z   2
loop_
 _symmetry_equiv_pos_site_id
 _symmetry_equiv_pos_as_xyz
  1  'x, y, z'
loop_
 _atom_site_type_symbol
 _atom_site_label
 _atom_site_symmetry_multiplicity
 _atom_site_fract_x
 _atom_site_fract_y
 _atom_site_fract_z
 _atom_site_occupancy
  H  H0  1  0.68152442  0.31847558  0.75000000  1
  H  H1  1  0.31847558  0.68152442  0.25000000  1
  He  He2  1  0.10728565  0.89271435  0.25000000  1
  He  He3  1  0.89271435  0.10728565  0.75000000  1
  Li  Li4  1  0.45619260  0.54380740  0.25000000  1
  Li  Li5  1  0.54380740  0.45619260  0.75000000  1
  Li  Li6  1  0.25001367  0.74998633  0.75000000  1
  Li  Li7  1  0.74998633  0.25001367  0.25000000  1
