# generated using pymatgen
data_H5He4
_symmetry_space_group_name_H-M   'P 1'
_cell_length_a   6.85163613
_cell_length_b   6.85163613
_cell_length_c   11.41028542
_cell_angle_alpha   70.11919224
_cell_angle_beta   70.11919224
_cell_angle_gamma   47.71062777
_symmetry_Int_Tables_number   1
_chemical_formula_structural   H5He4
_chemical_formula_sum   'H5 He4'
_cell_volume   367.84279684
_cell_formula_units_Z   1
loop_
 _symmetry_equiv_pos_site_id
 _symmetry_equiv_pos_as_xyz
  1  'x, y, z'
loop_
 _atom_site_type_symbol
 _atom_site_label
 _atom_site_symmetry_multiplicity
 _atom_site_fract_x
 _atom_site_fract_y
 _atom_site_fract_z
 _atom_site_occupancy
  H  H0  1  0.89906513  0.89906513  0.39185569  1
  H  H1  1  0.10093487  0.10093487  0.60814431  1
  H  H2  1  0.24594960  0.24594960  0.16529159  1
  H  H3  1  0.75405040  0.75405040  0.83470841  1
  H  H4  1  -0.00000000  -0.00000000  -0.00000000  1
  He  He5  1  0.54426242  0.54426242  0.17532115  1
  He  He6  1  0.45573758  0.45573758  0.82467885  1
  He  He7  1  0.60561620  0.60561620  0.39074324  1
  He  He8  1  0.39438380  0.39438380  0.60925676  1
