# generated using pymatgen
data_HHe6Li2
_symmetry_space_group_name_H-M   'P 1'
_cell_length_a   7.47267936
_cell_length_b   7.47267936
_cell_length_c   7.47267936
_cell_angle_alpha   60.00000000
_cell_angle_beta   60.00000000
_cell_angle_gamma   60.00000000
_symmetry_Int_Tables_number   1
_chemical_formula_structural   HHe6Li2
_chemical_formula_sum   'H2 He12 Li4'
_cell_volume   295.06251858
_cell_formula_units_Z   2
loop_
 _symmetry_equiv_pos_site_id
 _symmetry_equiv_pos_as_xyz
  1  'x, y, z'
loop_
 _atom_site_type_symbol
 _atom_site_label
 _atom_site_symmetry_multiplicity
 _atom_site_fract_x
 _atom_site_fract_y
 _atom_site_fract_z
 _atom_site_occupancy
  H  H0  1  0.12500000  0.12500000  0.12500000  1
  H  H1  1  0.87500000  0.87500000  0.87500000  1
  He  He2  1  0.43158066  0.81841934  0.43158066  1
  He  He3  1  0.81841934  0.43158066  0.81841934  1
  He  He4  1  0.43158066  0.43158066  0.81841934  1
  He  He5  1  0.81841934  0.81841934  0.43158066  1
  He  He6  1  0.81841934  0.43158066  0.43158066  1
  He  He7  1  0.43158066  0.81841934  0.81841934  1
  He  He8  1  0.56841934  0.18158066  0.56841934  1
  He  He9  1  0.18158066  0.56841934  0.18158066  1
  He  He10  1  0.56841934  0.18158066  0.18158066  1
  He  He11  1  0.18158066  0.56841934  0.56841934  1
  He  He12  1  0.18158066  0.18158066  0.56841934  1
  He  He13  1  0.56841934  0.56841934  0.18158066  1
  Li  Li14  1  0.50000000  0.50000000  0.50000000  1
  Li  Li15  1  0.50000000  -0.00000000  0.50000000  1
  Li  Li16  1  -0.00000000  0.50000000  0.50000000  1
  Li  Li17  1  0.50000000  0.50000000  0.00000000  1
