# generated using pymatgen
data_HHeLi
_symmetry_space_group_name_H-M   'P 1'
_cell_length_a   6.88939991
_cell_length_b   6.88939991
_cell_length_c   6.78422803
_cell_angle_alpha   73.11537021
_cell_angle_beta   73.11537021
_cell_angle_gamma   33.04093770
_symmetry_Int_Tables_number   1
_chemical_formula_structural   HHeLi
_chemical_formula_sum   'H4 He4 Li4'
_cell_volume   167.31890213
_cell_formula_units_Z   4
loop_
 _symmetry_equiv_pos_site_id
 _symmetry_equiv_pos_as_xyz
  1  'x, y, z'
loop_
 _atom_site_type_symbol
 _atom_site_label
 _atom_site_symmetry_multiplicity
 _atom_site_fract_x
 _atom_site_fract_y
 _atom_site_fract_z
 _atom_site_occupancy
  H  H0  1  0.55483190  0.55483190  0.13460026  1
  H  H1  1  0.44516810  0.44516810  0.86539974  1
  H  H2  1  0.24124998  0.24124998  0.14780196  1
  H  H3  1  0.75875002  0.75875002  0.85219804  1
  He  He4  1  0.63793928  0.63793928  0.49351374  1
  He  He5  1  0.36206072  0.36206072  0.50648626  1
  He  He6  1  0.86390253  0.86390253  0.21315751  1
  He  He7  1  0.13609747  0.13609747  0.78684249  1
  Li  Li8  1  0.68951761  0.68951761  0.19531316  1
  Li  Li9  1  0.31048239  0.31048239  0.80468684  1
  Li  Li10  1  0.39775054  0.39775054  0.20558711  1
  Li  Li11  1  0.60224946  0.60224946  0.79441289  1
