# generated using pymatgen
data_HHeLi6(Be4B)2
_symmetry_space_group_name_H-M   'P 1'
_cell_length_a   7.19688876
_cell_length_b   7.19688876
_cell_length_c   7.19688876
_cell_angle_alpha   60.00000000
_cell_angle_beta   60.00000000
_cell_angle_gamma   60.00000000
_symmetry_Int_Tables_number   1
_chemical_formula_structural   HHeLi6(Be4B)2
_chemical_formula_sum   'H1 He1 Li6 Be8 B2'
_cell_volume   263.58419886
_cell_formula_units_Z   1
loop_
 _symmetry_equiv_pos_site_id
 _symmetry_equiv_pos_as_xyz
  1  'x, y, z'
loop_
 _atom_site_type_symbol
 _atom_site_label
 _atom_site_symmetry_multiplicity
 _atom_site_fract_x
 _atom_site_fract_y
 _atom_site_fract_z
 _atom_site_occupancy
  H  H0  1  0.50000000  0.50000000  0.50000000  1
  He  He1  1  -0.00000000  0.00000000  -0.00000000  1
  Li  Li2  1  0.22330407  0.77669593  0.22330407  1
  Li  Li3  1  0.77669593  0.22330407  0.77669593  1
  Li  Li4  1  0.77669593  0.22330407  0.22330407  1
  Li  Li5  1  0.22330407  0.77669593  0.77669593  1
  Li  Li6  1  0.77669593  0.77669593  0.22330407  1
  Li  Li7  1  0.22330407  0.22330407  0.77669593  1
  Be  Be8  1  0.83468021  0.83468021  0.49595937  1
  Be  Be9  1  0.83468021  0.83468021  0.83468021  1
  Be  Be10  1  0.83468021  0.49595937  0.83468021  1
  Be  Be11  1  0.49595937  0.83468021  0.83468021  1
  Be  Be12  1  0.16531979  0.16531979  0.16531979  1
  Be  Be13  1  0.16531979  0.16531979  0.50404063  1
  Be  Be14  1  0.16531979  0.50404063  0.16531979  1
  Be  Be15  1  0.50404063  0.16531979  0.16531979  1
  B  B16  1  0.75000000  0.75000000  0.75000000  1
  B  B17  1  0.25000000  0.25000000  0.25000000  1
