# generated using pymatgen
data_H4He4Li4Be
_symmetry_space_group_name_H-M   'P 1'
_cell_length_a   8.22377801
_cell_length_b   8.22377801
_cell_length_c   9.83643347
_cell_angle_alpha   62.98622833
_cell_angle_beta   62.98622833
_cell_angle_gamma   26.60082257
_symmetry_Int_Tables_number   1
_chemical_formula_structural   H4He4Li4Be
_chemical_formula_sum   'H4 He4 Li4 Be1'
_cell_volume   263.44358773
_cell_formula_units_Z   1
loop_
 _symmetry_equiv_pos_site_id
 _symmetry_equiv_pos_as_xyz
  1  'x, y, z'
loop_
 _atom_site_type_symbol
 _atom_site_label
 _atom_site_symmetry_multiplicity
 _atom_site_fract_x
 _atom_site_fract_y
 _atom_site_fract_z
 _atom_site_occupancy
  H  H0  1  0.47475207  0.47475207  0.33148473  1
  H  H1  1  0.52524793  0.52524793  0.66851527  1
  H  H2  1  0.77652456  0.77652456  0.32766052  1
  H  H3  1  0.22347544  0.22347544  0.67233948  1
  He  He4  1  0.94776892  0.94776892  0.22221988  1
  He  He5  1  0.05223108  0.05223108  0.77778012  1
  He  He6  1  0.31701746  0.31701746  0.41077265  1
  He  He7  1  0.68298254  0.68298254  0.58922735  1
  Li  Li8  1  0.62118375  0.62118375  0.98427916  1
  Li  Li9  1  0.37881625  0.37881625  0.01572084  1
  Li  Li10  1  0.11563797  0.11563797  0.36887105  1
  Li  Li11  1  0.88436203  0.88436203  0.63112895  1
  Be  Be12  1  0.00000000  0.00000000  -0.00000000  1
