# generated using pymatgen
data_H2He4Li
_symmetry_space_group_name_H-M   'P 1'
_cell_length_a   6.23823352
_cell_length_b   8.24519324
_cell_length_c   13.69688084
_cell_angle_alpha   90.00000000
_cell_angle_beta   90.00000000
_cell_angle_gamma   90.00000000
_symmetry_Int_Tables_number   1
_chemical_formula_structural   H2He4Li
_chemical_formula_sum   'H8 He16 Li4'
_cell_volume   704.50510403
_cell_formula_units_Z   4
loop_
 _symmetry_equiv_pos_site_id
 _symmetry_equiv_pos_as_xyz
  1  'x, y, z'
loop_
 _atom_site_type_symbol
 _atom_site_label
 _atom_site_symmetry_multiplicity
 _atom_site_fract_x
 _atom_site_fract_y
 _atom_site_fract_z
 _atom_site_occupancy
  H  H0  1  0.00000000  0.00000000  0.00000000  1
  H  H1  1  0.50000000  0.00000000  0.50000000  1
  H  H2  1  0.00000000  0.50000000  0.00000000  1
  H  H3  1  0.50000000  0.50000000  0.50000000  1
  H  H4  1  0.51477581  0.75000000  0.22722884  1
  H  H5  1  0.01477581  0.25000000  0.27277116  1
  H  H6  1  0.48522419  0.25000000  0.77277116  1
  H  H7  1  0.98522419  0.75000000  0.72722884  1
  He  He8  1  0.23081386  0.95584829  0.33310560  1
  He  He9  1  0.73081386  0.04415171  0.16689440  1
  He  He10  1  0.76918614  0.45584829  0.66689440  1
  He  He11  1  0.26918614  0.54415171  0.83310560  1
  He  He12  1  0.76918614  0.04415171  0.66689440  1
  He  He13  1  0.26918614  0.95584829  0.83310560  1
  He  He14  1  0.23081386  0.54415171  0.33310560  1
  He  He15  1  0.73081386  0.45584829  0.16689440  1
  He  He16  1  0.75225840  0.75000000  0.40715128  1
  He  He17  1  0.25225840  0.25000000  0.09284872  1
  He  He18  1  0.24774160  0.25000000  0.59284872  1
  He  He19  1  0.74774160  0.75000000  0.90715128  1
  He  He20  1  0.22167603  0.75000000  0.55251320  1
  He  He21  1  0.72167603  0.25000000  0.94748680  1
  He  He22  1  0.77832397  0.25000000  0.44748680  1
  He  He23  1  0.27832397  0.75000000  0.05251320  1
  Li  Li24  1  0.09300611  0.75000000  0.40652136  1
  Li  Li25  1  0.59300611  0.25000000  0.09347864  1
  Li  Li26  1  0.90699389  0.25000000  0.59347864  1
  Li  Li27  1  0.40699389  0.75000000  0.90652136  1
