# generated using pymatgen
data_H8He4Li
_symmetry_space_group_name_H-M   'P 1'
_cell_length_a   6.73460656
_cell_length_b   6.73460656
_cell_length_c   6.73460656
_cell_angle_alpha   98.33040045
_cell_angle_beta   98.33040045
_cell_angle_gamma   135.25424858
_symmetry_Int_Tables_number   1
_chemical_formula_structural   H8He4Li
_chemical_formula_sum   'H8 He4 Li1'
_cell_volume   198.83789896
_cell_formula_units_Z   1
loop_
 _symmetry_equiv_pos_site_id
 _symmetry_equiv_pos_as_xyz
  1  'x, y, z'
loop_
 _atom_site_type_symbol
 _atom_site_label
 _atom_site_symmetry_multiplicity
 _atom_site_fract_x
 _atom_site_fract_y
 _atom_site_fract_z
 _atom_site_occupancy
  H  H0  1  0.34787401  0.00000000  0.34787401  1
  H  H1  1  0.65212599  0.00000000  0.65212599  1
  H  H2  1  0.00000000  0.34787401  0.34787401  1
  H  H3  1  0.00000000  0.65212599  0.65212599  1
  H  H4  1  0.28143661  0.50000000  0.78143661  1
  H  H5  1  0.71856339  0.50000000  0.21856339  1
  H  H6  1  0.50000000  0.28143661  0.78143661  1
  H  H7  1  0.50000000  0.71856339  0.21856339  1
  He  He8  1  0.00000000  0.00000000  0.50000000  1
  He  He9  1  0.50000000  0.50000000  0.50000000  1
  He  He10  1  0.50000000  0.00000000  0.00000000  1
  He  He11  1  0.00000000  0.50000000  0.00000000  1
  Li  Li12  1  0.00000000  0.00000000  0.00000000  1
