# generated using pymatgen
data_BeInGe
_symmetry_space_group_name_H-M   'P 1'
_cell_length_a   3.95348978
_cell_length_b   3.95348978
_cell_length_c   4.22755118
_cell_angle_alpha   90.00000000
_cell_angle_beta   90.00000000
_cell_angle_gamma   120.00001283
_symmetry_Int_Tables_number   1
_chemical_formula_structural   BeInGe
_chemical_formula_sum   'Be1 In1 Ge1'
_cell_volume   57.22432654
_cell_formula_units_Z   1
loop_
 _symmetry_equiv_pos_site_id
 _symmetry_equiv_pos_as_xyz
  1  'x, y, z'
loop_
 _atom_site_type_symbol
 _atom_site_label
 _atom_site_symmetry_multiplicity
 _atom_site_fract_x
 _atom_site_fract_y
 _atom_site_fract_z
 _atom_site_occupancy
  Be  Be0  1  -0.00000000  0.00000000  0.16657103  1
  In  In1  1  0.33333200  0.66666572  0.66670701  1
  Ge  Ge2  1  0.66666572  0.33333200  0.16672168  1
