# generated using pymatgen
data_Na2TiBe2
_symmetry_space_group_name_H-M   'P 1'
_cell_length_a   5.20991597
_cell_length_b   5.20991597
_cell_length_c   5.20991597
_cell_angle_alpha   127.05789970
_cell_angle_beta   127.05789970
_cell_angle_gamma   78.15624408
_symmetry_Int_Tables_number   1
_chemical_formula_structural   Na2TiBe2
_chemical_formula_sum   'Na2 Ti1 Be2'
_cell_volume   87.24662409
_cell_formula_units_Z   1
loop_
 _symmetry_equiv_pos_site_id
 _symmetry_equiv_pos_as_xyz
  1  'x, y, z'
loop_
 _atom_site_type_symbol
 _atom_site_label
 _atom_site_symmetry_multiplicity
 _atom_site_fract_x
 _atom_site_fract_y
 _atom_site_fract_z
 _atom_site_occupancy
  Na  Na0  1  0.63450128  0.63450128  0.00000000  1
  Na  Na1  1  0.36549850  0.36549850  0.00000000  1
  Ti  Ti2  1  0.00000000  0.00000000  0.00000000  1
  Be  Be3  1  0.75000059  0.24999994  0.50000065  1
  Be  Be4  1  0.24999994  0.75000059  0.50000065  1
