# generated using pymatgen
data_BeSe2Cl
_symmetry_space_group_name_H-M   'P 1'
_cell_length_a   2.86412406
_cell_length_b   2.86412406
_cell_length_c   9.88645459
_cell_angle_alpha   90.00000000
_cell_angle_beta   90.00000000
_cell_angle_gamma   90.00000000
_symmetry_Int_Tables_number   1
_chemical_formula_structural   BeSe2Cl
_chemical_formula_sum   'Be1 Se2 Cl1'
_cell_volume   81.10062991
_cell_formula_units_Z   1
loop_
 _symmetry_equiv_pos_site_id
 _symmetry_equiv_pos_as_xyz
  1  'x, y, z'
loop_
 _atom_site_type_symbol
 _atom_site_label
 _atom_site_symmetry_multiplicity
 _atom_site_fract_x
 _atom_site_fract_y
 _atom_site_fract_z
 _atom_site_occupancy
  Be  Be0  1  0.00000000  0.00000000  0.52341009  1
  Se  Se1  1  0.00000000  0.00000000  0.98647565  1
  Se  Se2  1  0.49999929  0.49999929  0.33731831  1
  Cl  Cl3  1  0.49999929  0.49999929  0.65279479  1
