# generated using pymatgen
data_SrBe2Zn
_symmetry_space_group_name_H-M   'P 1'
_cell_length_a   4.68326320
_cell_length_b   4.68326320
_cell_length_c   4.68326320
_cell_angle_alpha   120.00320264
_cell_angle_beta   120.00320264
_cell_angle_gamma   89.99445295
_symmetry_Int_Tables_number   1
_chemical_formula_structural   SrBe2Zn
_chemical_formula_sum   'Sr1 Be2 Zn1'
_cell_volume   72.62893475
_cell_formula_units_Z   1
loop_
 _symmetry_equiv_pos_site_id
 _symmetry_equiv_pos_as_xyz
  1  'x, y, z'
loop_
 _atom_site_type_symbol
 _atom_site_label
 _atom_site_symmetry_multiplicity
 _atom_site_fract_x
 _atom_site_fract_y
 _atom_site_fract_z
 _atom_site_occupancy
  Sr  Sr0  1  0.50000038  0.50000038  0.00000000  1
  Be  Be1  1  0.00000000  0.00000000  0.00000000  1
  Be  Be2  1  0.25000019  0.75000057  0.50000037  1
  Zn  Zn3  1  0.75000057  0.25000019  0.50000037  1
