# generated using pymatgen
data_CaMoO4
_symmetry_space_group_name_H-M   'P 1'
_cell_length_a   6.80579410
_cell_length_b   6.80579410
_cell_length_c   6.80579410
_cell_angle_alpha   134.74436840
_cell_angle_beta   134.74436840
_cell_angle_gamma   65.92765378
_symmetry_Int_Tables_number   1
_chemical_formula_structural   CaMoO4
_chemical_formula_sum   'Ca2 Mo2 O8'
_cell_volume   156.60595540
_cell_formula_units_Z   2
loop_
 _symmetry_equiv_pos_site_id
 _symmetry_equiv_pos_as_xyz
  1  'x, y, z'
loop_
 _atom_site_type_symbol
 _atom_site_label
 _atom_site_symmetry_multiplicity
 _atom_site_fract_x
 _atom_site_fract_y
 _atom_site_fract_z
 _atom_site_occupancy
  Ca  Ca0  1  0.50000015  0.50000015  0.00000000  1
  Ca  Ca1  1  0.25000007  0.74999915  0.49999907  1
  Mo  Mo2  1  0.00000000  0.00000000  0.00000000  1
  Mo  Mo3  1  0.74999915  0.25000008  0.49999907  1
  O  O4  1  0.67130167  0.76444339  0.60561364  1
  O  O5  1  0.15882866  0.06568694  0.39438450  1
  O  O6  1  0.81568717  0.92130175  0.40685735  1
  O  O7  1  0.51444331  0.40882874  0.59314079  1
  O  O8  1  0.07869747  0.48555483  0.89438356  1
  O  O9  1  0.59117049  0.18431314  0.10561458  1
  O  O10  1  0.93431229  0.32869864  0.09314173  1
  O  O11  1  0.23555583  0.84116948  0.90685641  1
