# generated using pymatgen
data_BaTl2Bi
_symmetry_space_group_name_H-M   'P 1'
_cell_length_a   4.24477263
_cell_length_b   4.24544781
_cell_length_c   7.55228226
_cell_angle_alpha   90.00000000
_cell_angle_beta   90.00000000
_cell_angle_gamma   90.00000000
_symmetry_Int_Tables_number   1
_chemical_formula_structural   BaTl2Bi
_chemical_formula_sum   'Ba1 Tl2 Bi1'
_cell_volume   136.09938153
_cell_formula_units_Z   1
loop_
 _symmetry_equiv_pos_site_id
 _symmetry_equiv_pos_as_xyz
  1  'x, y, z'
loop_
 _atom_site_type_symbol
 _atom_site_label
 _atom_site_symmetry_multiplicity
 _atom_site_fract_x
 _atom_site_fract_y
 _atom_site_fract_z
 _atom_site_occupancy
  Ba  Ba0  1  0.49999969  0.50000026  0.00000000  1
  Tl  Tl1  1  0.00000000  0.00000000  0.71090902  1
  Tl  Tl2  1  0.00000000  0.00000000  0.28909068  1
  Bi  Bi3  1  0.49999969  0.50000026  0.49999985  1
