# generated using pymatgen
data_PrCu2
_symmetry_space_group_name_H-M   'P 1'
_cell_length_a   5.70283391
_cell_length_b   5.70283391
_cell_length_c   5.70283391
_cell_angle_alpha   135.80707019
_cell_angle_beta   97.60549381
_cell_angle_gamma   98.66470912
_symmetry_Int_Tables_number   1
_chemical_formula_structural   PrCu2
_chemical_formula_sum   'Pr2 Cu4'
_cell_volume   119.78370696
_cell_formula_units_Z   2
loop_
 _symmetry_equiv_pos_site_id
 _symmetry_equiv_pos_as_xyz
  1  'x, y, z'
loop_
 _atom_site_type_symbol
 _atom_site_label
 _atom_site_symmetry_multiplicity
 _atom_site_fract_x
 _atom_site_fract_y
 _atom_site_fract_z
 _atom_site_occupancy
  Pr  Pr0  1  0.75009406  0.50009412  0.24999994  1
  Pr  Pr1  1  0.24990625  0.49990666  0.75000030  1
  Cu  Cu2  1  0.16672206  0.16661156  0.00011050  1
  Cu  Cu3  1  0.66650095  0.16661156  0.49988939  1
  Cu  Cu4  1  0.33349936  0.83338922  0.50011085  1
  Cu  Cu5  1  0.83327879  0.83338929  -0.00011050  1
