# generated using pymatgen
data_FeWO4
_symmetry_space_group_name_H-M   'P 1'
_cell_length_a   5.70322819
_cell_length_b   4.67354593
_cell_length_c   4.99516260
_cell_angle_alpha   89.77752886
_cell_angle_beta   90.00000000
_cell_angle_gamma   90.00000000
_symmetry_Int_Tables_number   1
_chemical_formula_structural   FeWO4
_chemical_formula_sum   'Fe2 W2 O8'
_cell_volume   133.14155316
_cell_formula_units_Z   2
loop_
 _symmetry_equiv_pos_site_id
 _symmetry_equiv_pos_as_xyz
  1  'x, y, z'
loop_
 _atom_site_type_symbol
 _atom_site_label
 _atom_site_symmetry_multiplicity
 _atom_site_fract_x
 _atom_site_fract_y
 _atom_site_fract_z
 _atom_site_occupancy
  Fe  Fe0  1  0.34278653  0.50000063  0.74999982  1
  Fe  Fe1  1  0.65721379  0.50000053  0.25000010  1
  W  W2  1  0.17425161  0.00000005  0.24999986  1
  W  W3  1  0.82574871  0.00000015  0.74999957  1
  O  O4  1  0.11165106  0.77892717  0.57297016  1
  O  O5  1  0.11165106  0.22107409  0.92702948  1
  O  O6  1  0.88834926  0.22107399  0.42702976  1
  O  O7  1  0.88834926  0.77892707  0.07297044  1
  O  O8  1  0.37600178  0.74091200  0.09814873  1
  O  O9  1  0.37600178  0.25908906  0.40185147  1
  O  O10  1  0.62399854  0.25908916  0.90185119  1
  O  O11  1  0.62399854  0.74091210  0.59814845  1
