# generated using pymatgen
data_ErPt
_symmetry_space_group_name_H-M   'P 1'
_cell_length_a   4.47556770
_cell_length_b   5.53074034
_cell_length_c   6.94551214
_cell_angle_alpha   90.00000000
_cell_angle_beta   90.00000000
_cell_angle_gamma   90.00000000
_symmetry_Int_Tables_number   1
_chemical_formula_structural   ErPt
_chemical_formula_sum   'Er4 Pt4'
_cell_volume   171.92367047
_cell_formula_units_Z   4
loop_
 _symmetry_equiv_pos_site_id
 _symmetry_equiv_pos_as_xyz
  1  'x, y, z'
loop_
 _atom_site_type_symbol
 _atom_site_label
 _atom_site_symmetry_multiplicity
 _atom_site_fract_x
 _atom_site_fract_y
 _atom_site_fract_z
 _atom_site_occupancy
  Er  Er0  1  0.75000039  0.85667986  0.18230749  1
  Er  Er1  1  0.25000013  0.35667989  0.31769235  1
  Er  Er2  1  0.25000013  0.14332008  0.81769220  1
  Er  Er3  1  0.75000039  0.64332005  0.68230734  1
  Pt  Pt4  1  0.75000039  0.34009916  0.04489602  1
  Pt  Pt5  1  0.25000013  0.84009913  0.45510383  1
  Pt  Pt6  1  0.25000013  0.65990078  0.95510367  1
  Pt  Pt7  1  0.75000039  0.15990081  0.54489586  1
