# generated using pymatgen
data_Fe2N
_symmetry_space_group_name_H-M   'P 1'
_cell_length_a   4.71053789
_cell_length_b   4.71034699
_cell_length_c   4.32310470
_cell_angle_alpha   90.00039076
_cell_angle_beta   89.99921851
_cell_angle_gamma   120.00134070
_symmetry_Int_Tables_number   1
_chemical_formula_structural   Fe2N
_chemical_formula_sum   'Fe6 N3'
_cell_volume   83.06994453
_cell_formula_units_Z   3
loop_
 _symmetry_equiv_pos_site_id
 _symmetry_equiv_pos_as_xyz
  1  'x, y, z'
loop_
 _atom_site_type_symbol
 _atom_site_label
 _atom_site_symmetry_multiplicity
 _atom_site_fract_x
 _atom_site_fract_y
 _atom_site_fract_z
 _atom_site_occupancy
  Fe  Fe0  1  0.66665330  0.66529010  0.25031708  1
  Fe  Fe1  1  0.33469322  0.00137865  0.25031875  1
  Fe  Fe2  1  0.99864103  0.33333060  0.25033703  1
  Fe  Fe3  1  -0.00136389  0.66528993  0.74968035  1
  Fe  Fe4  1  0.66668583  0.00137815  0.74967960  1
  Fe  Fe5  1  0.33469002  0.33333043  0.74966056  1
  N  N6  1  0.33333635  0.66667296  -0.00000077  1
  N  N7  1  0.66666665  0.33333277  0.49999879  1
  N  N8  1  -0.00000233  -0.00000466  0.00000000  1
