# generated using pymatgen
data_GeTe
_symmetry_space_group_name_H-M   'P 1'
_cell_length_a   7.35127549
_cell_length_b   9.21016790
_cell_length_c   7.28609508
_cell_angle_alpha   90.00000000
_cell_angle_beta   90.00000000
_cell_angle_gamma   90.00000000
_symmetry_Int_Tables_number   1
_chemical_formula_structural   GeTe
_chemical_formula_sum   'Ge8 Te8'
_cell_volume   493.31586246
_cell_formula_units_Z   8
loop_
 _symmetry_equiv_pos_site_id
 _symmetry_equiv_pos_as_xyz
  1  'x, y, z'
loop_
 _atom_site_type_symbol
 _atom_site_label
 _atom_site_symmetry_multiplicity
 _atom_site_fract_x
 _atom_site_fract_y
 _atom_site_fract_z
 _atom_site_occupancy
  Ge  Ge0  1  0.90230842  0.36823248  0.06953866  1
  Ge  Ge1  1  0.40230812  0.13176763  0.43046168  1
  Ge  Ge2  1  0.59769250  0.63176775  0.06953866  1
  Ge  Ge3  1  0.09769219  0.86823259  0.43046168  1
  Ge  Ge4  1  0.09769219  0.63176775  0.93046202  1
  Ge  Ge5  1  0.59769250  0.86823259  0.56953900  1
  Ge  Ge6  1  0.40230812  0.36823248  0.93046202  1
  Ge  Ge7  1  0.90230842  0.13176763  0.56953900  1
  Te  Te8  1  0.89282099  0.83502591  0.11166644  1
  Te  Te9  1  0.39282069  0.66497443  0.38833389  1
  Te  Te10  1  0.60717993  0.16497431  0.11166644  1
  Te  Te11  1  0.10717962  0.33502580  0.38833389  1
  Te  Te12  1  0.10717962  0.16497431  0.88833423  1
  Te  Te13  1  0.60717993  0.33502580  0.61166678  1
  Te  Te14  1  0.39282069  0.83502591  0.88833423  1
  Te  Te15  1  0.89282099  0.66497443  0.61166678  1
