# generated using pymatgen
data_La3Cu3Sb4
_symmetry_space_group_name_H-M   'P 1'
_cell_length_a   8.57408196
_cell_length_b   8.57408196
_cell_length_c   8.57408196
_cell_angle_alpha   109.47122063
_cell_angle_beta   109.47122063
_cell_angle_gamma   109.47122063
_symmetry_Int_Tables_number   1
_chemical_formula_structural   La3Cu3Sb4
_chemical_formula_sum   'La6 Cu6 Sb8'
_cell_volume   485.22257880
_cell_formula_units_Z   2
loop_
 _symmetry_equiv_pos_site_id
 _symmetry_equiv_pos_as_xyz
  1  'x, y, z'
loop_
 _atom_site_type_symbol
 _atom_site_label
 _atom_site_symmetry_multiplicity
 _atom_site_fract_x
 _atom_site_fract_y
 _atom_site_fract_z
 _atom_site_occupancy
  La  La0  1  0.87500026  0.75000022  0.12500004  1
  La  La1  1  0.75000022  0.87500026  0.62500019  1
  La  La2  1  0.25000007  0.62500019  0.87500026  1
  La  La3  1  0.62500019  0.25000007  0.37500011  1
  La  La4  1  0.12500004  0.37500011  0.25000007  1
  La  La5  1  0.37500011  0.12500004  0.75000022  1
  Cu  Cu6  1  0.87500026  0.62500019  0.75000022  1
  Cu  Cu7  1  0.25000007  0.12500004  0.37500011  1
  Cu  Cu8  1  0.37500011  0.75000022  0.62500019  1
  Cu  Cu9  1  0.12500004  0.25000007  0.87500026  1
  Cu  Cu10  1  0.62500019  0.87500026  0.25000007  1
  Cu  Cu11  1  0.75000022  0.37500011  0.12500004  1
  Sb  Sb12  1  0.00000000  0.16011358  0.50000015  1
  Sb  Sb13  1  0.16011358  -0.00000000  0.00000000  1
  Sb  Sb14  1  0.33988657  0.83988672  0.33988657  1
  Sb  Sb15  1  0.50000015  0.50000015  0.16011358  1
  Sb  Sb16  1  0.00000000  0.66011373  0.50000015  1
  Sb  Sb17  1  0.66011373  -0.00000000  0.00000000  1
  Sb  Sb18  1  0.83988672  0.33988657  0.83988672  1
  Sb  Sb19  1  0.50000015  0.50000015  0.66011373  1
