# generated using pymatgen
data_BeSn2Hg
_symmetry_space_group_name_H-M   'P 1'
_cell_length_a   6.04272481
_cell_length_b   6.04272481
_cell_length_c   6.04272481
_cell_angle_alpha   139.33115412
_cell_angle_beta   139.33115412
_cell_angle_gamma   58.87026798
_symmetry_Int_Tables_number   1
_chemical_formula_structural   BeSn2Hg
_chemical_formula_sum   'Be1 Sn2 Hg1'
_cell_volume   92.81973233
_cell_formula_units_Z   1
loop_
 _symmetry_equiv_pos_site_id
 _symmetry_equiv_pos_as_xyz
  1  'x, y, z'
loop_
 _atom_site_type_symbol
 _atom_site_label
 _atom_site_symmetry_multiplicity
 _atom_site_fract_x
 _atom_site_fract_y
 _atom_site_fract_z
 _atom_site_occupancy
  Be  Be0  1  0.50000044  0.50000044  0.00000000  1
  Sn  Sn1  1  0.00000000  0.00000000  0.00000000  1
  Sn  Sn2  1  0.25000022  0.74999993  0.49999971  1
  Hg  Hg3  1  0.74999993  0.25000022  0.49999971  1
