# generated using pymatgen
data_LiNdSn2
_symmetry_space_group_name_H-M   'P 1'
_cell_length_a   9.80926122
_cell_length_b   9.80926122
_cell_length_c   4.52356364
_cell_angle_alpha   90.00000000
_cell_angle_beta   90.00000000
_cell_angle_gamma   153.39783744
_symmetry_Int_Tables_number   1
_chemical_formula_structural   LiNdSn2
_chemical_formula_sum   'Li2 Nd2 Sn4'
_cell_volume   194.90835032
_cell_formula_units_Z   2
loop_
 _symmetry_equiv_pos_site_id
 _symmetry_equiv_pos_as_xyz
  1  'x, y, z'
loop_
 _atom_site_type_symbol
 _atom_site_label
 _atom_site_symmetry_multiplicity
 _atom_site_fract_x
 _atom_site_fract_y
 _atom_site_fract_z
 _atom_site_occupancy
  Li  Li0  1  0.67549685  0.32450399  0.74999940  1
  Li  Li1  1  0.32450399  0.67549685  0.24999980  1
  Nd  Nd2  1  0.89343079  0.10657004  0.74999940  1
  Nd  Nd3  1  0.10657004  0.89343079  0.24999980  1
  Sn  Sn4  1  0.54473146  0.45526937  0.74999940  1
  Sn  Sn5  1  0.45526937  0.54473146  0.24999980  1
  Sn  Sn6  1  0.25026362  0.74973721  0.74999940  1
  Sn  Sn7  1  0.74973721  0.25026362  0.24999980  1
