# generated using pymatgen
data_NdCl3
_symmetry_space_group_name_H-M   'P 1'
_cell_length_a   7.39527667
_cell_length_b   7.39697204
_cell_length_c   4.26688899
_cell_angle_alpha   90.00000000
_cell_angle_beta   90.00000000
_cell_angle_gamma   119.99308174
_symmetry_Int_Tables_number   1
_chemical_formula_structural   NdCl3
_chemical_formula_sum   'Nd2 Cl6'
_cell_volume   202.15321419
_cell_formula_units_Z   2
loop_
 _symmetry_equiv_pos_site_id
 _symmetry_equiv_pos_as_xyz
  1  'x, y, z'
loop_
 _atom_site_type_symbol
 _atom_site_label
 _atom_site_symmetry_multiplicity
 _atom_site_fract_x
 _atom_site_fract_y
 _atom_site_fract_z
 _atom_site_occupancy
  Nd  Nd0  1  0.33335863  0.66672291  0.25000006  1
  Nd  Nd1  1  0.66664178  0.33327726  0.75000018  1
  Cl  Cl2  1  0.38480929  0.29949305  0.25000006  1
  Cl  Cl3  1  0.70056358  0.08530810  0.25000006  1
  Cl  Cl4  1  0.91462065  0.61512016  0.25000006  1
  Cl  Cl5  1  0.61519113  0.70050712  0.75000018  1
  Cl  Cl6  1  0.29943684  0.91469207  0.75000018  1
  Cl  Cl7  1  0.08537977  0.38488001  0.75000018  1
