# generated using pymatgen
data_Tb(Mo3Se4)2
_symmetry_space_group_name_H-M   'P 1'
_cell_length_a   6.77171452
_cell_length_b   6.77171452
_cell_length_c   6.77171452
_cell_angle_alpha   89.00264690
_cell_angle_beta   89.00264690
_cell_angle_gamma   89.00264690
_symmetry_Int_Tables_number   1
_chemical_formula_structural   Tb(Mo3Se4)2
_chemical_formula_sum   'Tb1 Mo6 Se8'
_cell_volume   310.38502095
_cell_formula_units_Z   1
loop_
 _symmetry_equiv_pos_site_id
 _symmetry_equiv_pos_as_xyz
  1  'x, y, z'
loop_
 _atom_site_type_symbol
 _atom_site_label
 _atom_site_symmetry_multiplicity
 _atom_site_fract_x
 _atom_site_fract_y
 _atom_site_fract_z
 _atom_site_occupancy
  Tb  Tb0  1  0.00000000  0.00000000  0.00000000  1
  Mo  Mo1  1  0.42405403  0.23485817  0.55913898  1
  Mo  Mo2  1  0.55913957  0.42405422  0.23485769  1
  Mo  Mo3  1  0.23485825  0.55913946  0.42405359  1
  Mo  Mo4  1  0.57594627  0.76514212  0.44086000  1
  Mo  Mo5  1  0.44086072  0.57594608  0.76514129  1
  Mo  Mo6  1  0.76514204  0.44086083  0.57594539  1
  Se  Se7  1  0.23722299  0.23722299  0.23722268  1
  Se  Se8  1  0.76277730  0.76277730  0.76277630  1
  Se  Se9  1  0.37037973  0.75861429  0.12080325  1
  Se  Se10  1  0.12080367  0.37037936  0.75861366  1
  Se  Se11  1  0.75861414  0.12080390  0.37037900  1
  Se  Se12  1  0.62962057  0.24138601  0.87919573  1
  Se  Se13  1  0.87919662  0.62962094  0.24138533  1
  Se  Se14  1  0.24138615  0.87919640  0.62961998  1
