# generated using pymatgen
data_ZrBe2Pd
_symmetry_space_group_name_H-M   'P 1'
_cell_length_a   4.30801830
_cell_length_b   4.30801830
_cell_length_c   4.30801830
_cell_angle_alpha   120.01042899
_cell_angle_beta   120.01042899
_cell_angle_gamma   89.98193740
_symmetry_Int_Tables_number   1
_chemical_formula_structural   ZrBe2Pd
_chemical_formula_sum   'Zr1 Be2 Pd1'
_cell_volume   56.52611444
_cell_formula_units_Z   1
loop_
 _symmetry_equiv_pos_site_id
 _symmetry_equiv_pos_as_xyz
  1  'x, y, z'
loop_
 _atom_site_type_symbol
 _atom_site_label
 _atom_site_symmetry_multiplicity
 _atom_site_fract_x
 _atom_site_fract_y
 _atom_site_fract_z
 _atom_site_occupancy
  Zr  Zr0  1  0.75000017  0.25000008  0.50000009  1
  Be  Be1  1  0.00000000  0.00000000  0.00000000  1
  Be  Be2  1  0.25000008  0.75000017  0.50000009  1
  Pd  Pd3  1  0.50000015  0.50000015  0.00000000  1
