# generated using pymatgen
data_BeSe2Br
_symmetry_space_group_name_H-M   'P 1'
_cell_length_a   3.38741691
_cell_length_b   3.38741691
_cell_length_c   7.88794750
_cell_angle_alpha   90.00000000
_cell_angle_beta   90.00000000
_cell_angle_gamma   90.00000000
_symmetry_Int_Tables_number   1
_chemical_formula_structural   BeSe2Br
_chemical_formula_sum   'Be1 Se2 Br1'
_cell_volume   90.51098974
_cell_formula_units_Z   1
loop_
 _symmetry_equiv_pos_site_id
 _symmetry_equiv_pos_as_xyz
  1  'x, y, z'
loop_
 _atom_site_type_symbol
 _atom_site_label
 _atom_site_symmetry_multiplicity
 _atom_site_fract_x
 _atom_site_fract_y
 _atom_site_fract_z
 _atom_site_occupancy
  Be  Be0  1  -0.00000000  -0.00000000  0.32799001  1
  Se  Se1  1  -0.00000000  -0.00000000  0.06175047  1
  Se  Se2  1  0.50000046  0.50000046  0.40252557  1
  Br  Br3  1  0.50000046  0.50000046  0.70773343  1
