# generated using pymatgen
data_TlF
_symmetry_space_group_name_H-M   'P 1'
_cell_length_a   5.31814611
_cell_length_b   5.31802227
_cell_length_c   6.11459883
_cell_angle_alpha   90.00000000
_cell_angle_beta   90.00000000
_cell_angle_gamma   90.00000000
_symmetry_Int_Tables_number   1
_chemical_formula_structural   TlF
_chemical_formula_sum   'Tl4 F4'
_cell_volume   172.93320311
_cell_formula_units_Z   4
loop_
 _symmetry_equiv_pos_site_id
 _symmetry_equiv_pos_as_xyz
  1  'x, y, z'
loop_
 _atom_site_type_symbol
 _atom_site_label
 _atom_site_symmetry_multiplicity
 _atom_site_fract_x
 _atom_site_fract_y
 _atom_site_fract_z
 _atom_site_occupancy
  Tl  Tl0  1  0.75000055  0.20899472  0.75759815  1
  Tl  Tl1  1  0.25000018  0.20899472  0.24240204  1
  Tl  Tl2  1  0.75000055  0.70898011  0.24246086  1
  Tl  Tl3  1  0.25000018  0.70898011  0.75753933  1
  F  F4  1  0.75000055  0.20905725  0.35189979  1
  F  F5  1  0.25000018  0.20905725  0.64810040  1
  F  F6  1  0.75000055  0.70896713  0.64816343  1
  F  F7  1  0.25000018  0.70896713  0.35183676  1
