# generated using pymatgen
data_ThSi2Ru3
_symmetry_space_group_name_H-M   'P 1'
_cell_length_a   5.62688918
_cell_length_b   5.62689579
_cell_length_c   7.26190329
_cell_angle_alpha   90.00000000
_cell_angle_beta   90.00000000
_cell_angle_gamma   119.99993068
_symmetry_Int_Tables_number   1
_chemical_formula_structural   ThSi2Ru3
_chemical_formula_sum   'Th2 Si4 Ru6'
_cell_volume   199.12171767
_cell_formula_units_Z   2
loop_
 _symmetry_equiv_pos_site_id
 _symmetry_equiv_pos_as_xyz
  1  'x, y, z'
loop_
 _atom_site_type_symbol
 _atom_site_label
 _atom_site_symmetry_multiplicity
 _atom_site_fract_x
 _atom_site_fract_y
 _atom_site_fract_z
 _atom_site_occupancy
  Th  Th0  1  0.00000000  0.00000000  0.00000000  1
  Th  Th1  1  0.00000000  0.00000000  0.49999977  1
  Si  Si2  1  0.33333322  0.66666699  0.00000112  1
  Si  Si3  1  0.66666741  0.33333295  0.50000089  1
  Si  Si4  1  0.66666741  0.33333295  -0.00000112  1
  Si  Si5  1  0.33333322  0.66666699  0.49999866  1
  Ru  Ru6  1  0.46847304  -0.00000083  0.24999989  1
  Ru  Ru7  1  -0.00000052  0.46847176  0.24999989  1
  Ru  Ru8  1  0.53152518  0.53152453  0.24999989  1
  Ru  Ru9  1  0.53152792  0.00000147  0.74999966  1
  Ru  Ru10  1  0.00000020  0.53152754  0.74999966  1
  Ru  Ru11  1  0.46847545  0.46847541  0.74999966  1
