# generated using pymatgen
data_Ho2NiSn6
_symmetry_space_group_name_H-M   'P 1'
_cell_length_a   11.53786433
_cell_length_b   11.53786433
_cell_length_c   4.41715947
_cell_angle_alpha   90.00000000
_cell_angle_beta   90.00000000
_cell_angle_gamma   158.23330529
_symmetry_Int_Tables_number   1
_chemical_formula_structural   Ho2NiSn6
_chemical_formula_sum   'Ho2 Ni1 Sn6'
_cell_volume   218.05523564
_cell_formula_units_Z   1
loop_
 _symmetry_equiv_pos_site_id
 _symmetry_equiv_pos_as_xyz
  1  'x, y, z'
loop_
 _atom_site_type_symbol
 _atom_site_label
 _atom_site_symmetry_multiplicity
 _atom_site_fract_x
 _atom_site_fract_y
 _atom_site_fract_z
 _atom_site_occupancy
  Ho  Ho0  1  0.17730676  0.82269114  0.00000000  1
  Ho  Ho1  1  0.82269114  0.17730676  0.00000000  1
  Ni  Ni2  1  0.49999895  0.49999895  0.50000006  1
  Sn  Sn3  1  0.43052304  0.56947486  0.00000000  1
  Sn  Sn4  1  0.56947486  0.43052304  0.00000000  1
  Sn  Sn5  1  0.07038146  0.92961644  0.50000006  1
  Sn  Sn6  1  0.92961644  0.07038146  0.50000006  1
  Sn  Sn7  1  0.70514738  0.29485053  0.50000006  1
  Sn  Sn8  1  0.29485053  0.70514738  0.50000006  1
