# generated using pymatgen
data_ErCrO4
_symmetry_space_group_name_H-M   'P 1'
_cell_length_a   5.89550616
_cell_length_b   5.89550616
_cell_length_c   5.89550616
_cell_angle_alpha   106.23407882
_cell_angle_beta   106.23407882
_cell_angle_gamma   116.15975771
_symmetry_Int_Tables_number   1
_chemical_formula_structural   ErCrO4
_chemical_formula_sum   'Er2 Cr2 O8'
_cell_volume   156.10938388
_cell_formula_units_Z   2
loop_
 _symmetry_equiv_pos_site_id
 _symmetry_equiv_pos_as_xyz
  1  'x, y, z'
loop_
 _atom_site_type_symbol
 _atom_site_label
 _atom_site_symmetry_multiplicity
 _atom_site_fract_x
 _atom_site_fract_y
 _atom_site_fract_z
 _atom_site_occupancy
  Er  Er0  1  0.87500027  0.12500004  0.75000023  1
  Er  Er1  1  0.12500005  0.87500028  0.25000008  1
  Cr  Cr2  1  0.62500020  0.37500012  0.25000008  1
  Cr  Cr3  1  0.37500012  0.62500020  0.75000023  1
  O  O4  1  0.63396447  0.19907922  0.43488524  1
  O  O5  1  0.26419413  0.19907922  0.06511491  1
  O  O6  1  0.19907922  0.26419413  0.56511507  1
  O  O7  1  0.19907922  0.63396446  0.93488540  1
  O  O8  1  0.73580619  0.80092110  0.93488540  1
  O  O9  1  0.36603585  0.80092110  0.56511507  1
  O  O10  1  0.80092110  0.73580619  0.43488524  1
  O  O11  1  0.80092110  0.36603586  0.06511491  1
