# generated using pymatgen
data_AsCF3
_symmetry_space_group_name_H-M   'P 1'
_cell_length_a   10.37493884
_cell_length_b   10.37493884
_cell_length_c   6.20746725
_cell_angle_alpha   90.00000000
_cell_angle_beta   90.00000000
_cell_angle_gamma   90.00000000
_symmetry_Int_Tables_number   1
_chemical_formula_structural   AsCF3
_chemical_formula_sum   'As8 C8 F24'
_cell_volume   668.16777628
_cell_formula_units_Z   8
loop_
 _symmetry_equiv_pos_site_id
 _symmetry_equiv_pos_as_xyz
  1  'x, y, z'
loop_
 _atom_site_type_symbol
 _atom_site_label
 _atom_site_symmetry_multiplicity
 _atom_site_fract_x
 _atom_site_fract_y
 _atom_site_fract_z
 _atom_site_occupancy
  As  As0  1  0.34041542  0.50000006  0.92698182  1
  As  As1  1  0.65958469  0.50000006  0.92698182  1
  As  As2  1  0.00000000  0.15958463  0.42698160  1
  As  As3  1  0.00000000  0.84041548  0.42698160  1
  As  As4  1  0.84041548  0.00000000  0.57301885  1
  As  As5  1  0.15958463  0.00000000  0.57301885  1
  As  As6  1  0.50000006  0.34041542  0.07301862  1
  As  As7  1  0.50000006  0.65958469  0.07301862  1
  C  C8  1  0.50000006  0.76879483  0.79818247  1
  C  C9  1  0.50000006  0.23120528  0.79818247  1
  C  C10  1  0.73120533  0.00000000  0.29818225  1
  C  C11  1  0.26879478  0.00000000  0.29818225  1
  C  C12  1  0.00000000  0.26879478  0.70181819  1
  C  C13  1  0.76879483  0.50000006  0.20181797  1
  C  C14  1  0.23120528  0.50000006  0.20181797  1
  C  C15  1  0.00000000  0.73120533  0.70181819  1
  F  F16  1  0.65309430  0.89397042  0.29452057  1
  F  F17  1  0.15309424  0.39397036  0.20547965  1
  F  F18  1  0.84690587  0.60602975  0.20547965  1
  F  F19  1  0.60602975  0.84690587  0.79452079  1
  F  F20  1  0.39397036  0.15309424  0.79452079  1
  F  F21  1  0.65309430  0.10602970  0.29452057  1
  F  F22  1  0.34690581  0.89397042  0.29452057  1
  F  F23  1  0.39397036  0.84690587  0.79452079  1
  F  F24  1  0.60602975  0.15309424  0.79452079  1
  F  F25  1  0.34690581  0.10602970  0.29452057  1
  F  F26  1  0.89397042  0.65309430  0.70547987  1
  F  F27  1  0.00000000  0.79885118  0.89055648  1
  F  F28  1  0.84690587  0.39397036  0.20547965  1
  F  F29  1  0.15309424  0.60602975  0.20547965  1
  F  F30  1  0.50000006  0.70114899  0.60944418  1
  F  F31  1  0.50000006  0.29885113  0.60944418  1
  F  F32  1  0.20114893  0.00000000  0.10944396  1
  F  F33  1  0.79885118  0.00000000  0.10944396  1
  F  F34  1  0.89397042  0.34690581  0.70547987  1
  F  F35  1  0.00000000  0.20114893  0.89055648  1
  F  F36  1  0.70114899  0.50000006  0.39055626  1
  F  F37  1  0.29885113  0.50000006  0.39055626  1
  F  F38  1  0.10602970  0.34690581  0.70547987  1
  F  F39  1  0.10602970  0.65309430  0.70547987  1
