# generated using pymatgen
data_Ba4CaTc
_symmetry_space_group_name_H-M   'P 1'
_cell_length_a   7.01173529
_cell_length_b   7.01173529
_cell_length_c   7.01173529
_cell_angle_alpha   60.00000000
_cell_angle_beta   60.00000000
_cell_angle_gamma   60.00000000
_symmetry_Int_Tables_number   1
_chemical_formula_structural   Ba4CaTc
_chemical_formula_sum   'Ba4 Ca1 Tc1'
_cell_volume   243.75949355
_cell_formula_units_Z   1
loop_
 _symmetry_equiv_pos_site_id
 _symmetry_equiv_pos_as_xyz
  1  'x, y, z'
loop_
 _atom_site_type_symbol
 _atom_site_label
 _atom_site_symmetry_multiplicity
 _atom_site_fract_x
 _atom_site_fract_y
 _atom_site_fract_z
 _atom_site_occupancy
  Ba  Ba0  1  0.11936435  0.62687881  0.62687881  1
  Ba  Ba1  1  0.62687881  0.62687881  0.62687881  1
  Ba  Ba2  1  0.62687881  0.11936435  0.62687881  1
  Ba  Ba3  1  0.62687881  0.62687881  0.11936435  1
  Ca  Ca4  1  0.25000022  0.25000022  0.25000022  1
  Tc  Tc5  1  0.00000000  0.00000000  0.00000000  1
