# generated using pymatgen
data_KAg2
_symmetry_space_group_name_H-M   'P 1'
_cell_length_a   5.82938657
_cell_length_b   5.82938657
_cell_length_c   9.89721679
_cell_angle_alpha   90.00000000
_cell_angle_beta   90.00000000
_cell_angle_gamma   120.00012458
_symmetry_Int_Tables_number   1
_chemical_formula_structural   KAg2
_chemical_formula_sum   'K4 Ag8'
_cell_volume   291.26538984
_cell_formula_units_Z   4
loop_
 _symmetry_equiv_pos_site_id
 _symmetry_equiv_pos_as_xyz
  1  'x, y, z'
loop_
 _atom_site_type_symbol
 _atom_site_label
 _atom_site_symmetry_multiplicity
 _atom_site_fract_x
 _atom_site_fract_y
 _atom_site_fract_z
 _atom_site_occupancy
  K  K0  1  0.33333280  0.66666795  0.06130005  1
  K  K1  1  0.66666795  0.33333280  0.56130021  1
  K  K2  1  0.66666795  0.33333280  0.93870027  1
  K  K3  1  0.33333280  0.66666795  0.43870011  1
  Ag  Ag4  1  0.00000000  0.00000000  0.00000000  1
  Ag  Ag5  1  0.00000000  0.00000000  0.50000016  1
  Ag  Ag6  1  0.83410377  0.66821259  0.25000008  1
  Ag  Ag7  1  0.33178816  0.16589698  0.25000008  1
  Ag  Ag8  1  0.83410291  0.16589785  0.25000008  1
  Ag  Ag9  1  0.16589698  0.33178816  0.75000024  1
  Ag  Ag10  1  0.66821259  0.83410377  0.75000024  1
  Ag  Ag11  1  0.16589785  0.83410291  0.75000024  1
