# generated using pymatgen
data_CrAsRh
_symmetry_space_group_name_H-M   'P 1'
_cell_length_a   6.50111431
_cell_length_b   6.50117635
_cell_length_c   3.72161868
_cell_angle_alpha   90.00000000
_cell_angle_beta   90.00000000
_cell_angle_gamma   119.99968435
_symmetry_Int_Tables_number   1
_chemical_formula_structural   CrAsRh
_chemical_formula_sum   'Cr3 As3 Rh3'
_cell_volume   136.22086543
_cell_formula_units_Z   3
loop_
 _symmetry_equiv_pos_site_id
 _symmetry_equiv_pos_as_xyz
  1  'x, y, z'
loop_
 _atom_site_type_symbol
 _atom_site_label
 _atom_site_symmetry_multiplicity
 _atom_site_fract_x
 _atom_site_fract_y
 _atom_site_fract_z
 _atom_site_occupancy
  Cr  Cr0  1  0.99998500  0.40728874  0.50000018  1
  Cr  Cr1  1  0.59269669  0.59271247  0.50000018  1
  Cr  Cr2  1  0.40730055  0.00000018  0.50000018  1
  As  As3  1  -0.00001339  -0.00000000  0.50000018  1
  As  As4  1  0.66667952  0.33335136  0.00000000  1
  As  As5  1  0.33332840  0.66664958  0.00000000  1
  Rh  Rh6  1  0.00001821  0.74446406  0.00000000  1
  Rh  Rh7  1  0.25555473  0.25553654  0.00000000  1
  Rh  Rh8  1  0.74445128  0.00000034  0.00000000  1
