# generated using pymatgen
data_CrCuO4
_symmetry_space_group_name_H-M   'P 1'
_cell_length_a   4.90924409
_cell_length_b   4.90924409
_cell_length_c   6.25216774
_cell_angle_alpha   90.00000000
_cell_angle_beta   90.00000000
_cell_angle_gamma   111.36867942
_symmetry_Int_Tables_number   1
_chemical_formula_structural   CrCuO4
_chemical_formula_sum   'Cr2 Cu2 O8'
_cell_volume   140.32290078
_cell_formula_units_Z   2
loop_
 _symmetry_equiv_pos_site_id
 _symmetry_equiv_pos_as_xyz
  1  'x, y, z'
loop_
 _atom_site_type_symbol
 _atom_site_label
 _atom_site_symmetry_multiplicity
 _atom_site_fract_x
 _atom_site_fract_y
 _atom_site_fract_z
 _atom_site_occupancy
  Cr  Cr0  1  0.35850526  0.64149645  0.25000009  1
  Cr  Cr1  1  0.64149645  0.35850526  0.75000027  1
  Cu  Cu2  1  0.00000000  0.00000000  0.00000000  1
  Cu  Cu3  1  0.00000000  0.00000000  0.50000018  1
  O  O4  1  0.24236927  0.75763243  0.03470552  1
  O  O5  1  0.75763243  0.24236927  0.53470570  1
  O  O6  1  0.24236927  0.75763243  0.46529466  1
  O  O7  1  0.75763243  0.24236927  0.96529484  1
  O  O8  1  0.73157184  0.77759993  0.25000009  1
  O  O9  1  0.26842986  0.22240178  0.75000027  1
  O  O10  1  0.22240178  0.26842986  0.25000009  1
  O  O11  1  0.77759993  0.73157184  0.75000027  1
