# generated using pymatgen
data_LaIn4Ni
_symmetry_space_group_name_H-M   'P 1'
_cell_length_a   8.82949998
_cell_length_b   8.82949998
_cell_length_c   7.26591381
_cell_angle_alpha   90.00000000
_cell_angle_beta   90.00000000
_cell_angle_gamma   150.30908295
_symmetry_Int_Tables_number   1
_chemical_formula_structural   LaIn4Ni
_chemical_formula_sum   'La2 In8 Ni2'
_cell_volume   280.57512665
_cell_formula_units_Z   2
loop_
 _symmetry_equiv_pos_site_id
 _symmetry_equiv_pos_as_xyz
  1  'x, y, z'
loop_
 _atom_site_type_symbol
 _atom_site_label
 _atom_site_symmetry_multiplicity
 _atom_site_fract_x
 _atom_site_fract_y
 _atom_site_fract_z
 _atom_site_occupancy
  La  La0  1  0.11722701  0.88277275  0.74999961  1
  La  La1  1  0.88277275  0.11722701  0.24999987  1
  In  In2  1  0.31120285  0.68879692  0.95259352  1
  In  In3  1  0.68879692  0.31120285  0.45259378  1
  In  In4  1  0.31120285  0.68879692  0.54740569  1
  In  In5  1  0.68879692  0.31120285  0.04740595  1
  In  In6  1  0.92443429  0.07556548  0.74999961  1
  In  In7  1  0.07556548  0.92443429  0.24999987  1
  In  In8  1  0.49999988  0.49999988  0.00000000  1
  In  In9  1  0.49999988  0.49999988  0.49999974  1
  Ni  Ni10  1  0.77435494  0.22564483  0.74999961  1
  Ni  Ni11  1  0.22564483  0.77435494  0.24999987  1
