# generated using pymatgen
data_La4Bi3
_symmetry_space_group_name_H-M   'P 1'
_cell_length_a   8.54769942
_cell_length_b   8.54769942
_cell_length_c   8.54769942
_cell_angle_alpha   109.47122063
_cell_angle_beta   109.47122063
_cell_angle_gamma   109.47122063
_symmetry_Int_Tables_number   1
_chemical_formula_structural   La4Bi3
_chemical_formula_sum   'La8 Bi6'
_cell_volume   480.75724191
_cell_formula_units_Z   2
loop_
 _symmetry_equiv_pos_site_id
 _symmetry_equiv_pos_as_xyz
  1  'x, y, z'
loop_
 _atom_site_type_symbol
 _atom_site_label
 _atom_site_symmetry_multiplicity
 _atom_site_fract_x
 _atom_site_fract_y
 _atom_site_fract_z
 _atom_site_occupancy
  La  La0  1  0.00000000  0.00000000  0.85673001  1
  La  La1  1  0.64327103  0.14327068  0.64327103  1
  La  La2  1  0.85673001  0.50000035  0.50000035  1
  La  La3  1  0.50000035  0.35672966  0.00000000  1
  La  La4  1  0.00000000  -0.00000000  0.35672966  1
  La  La5  1  0.14327068  0.64327103  0.14327068  1
  La  La6  1  0.50000035  0.85673001  0.00000000  1
  La  La7  1  0.35672966  0.50000035  0.50000035  1
  Bi  Bi8  1  0.25000017  0.87500061  0.62500044  1
  Bi  Bi9  1  0.75000052  0.62500044  0.87500061  1
  Bi  Bi10  1  0.62500044  0.75000052  0.37500026  1
  Bi  Bi11  1  0.87500061  0.25000017  0.12500009  1
  Bi  Bi12  1  0.12500009  0.37500026  0.75000052  1
  Bi  Bi13  1  0.37500026  0.12500009  0.25000017  1
