# generated using pymatgen
data_CoAsS
_symmetry_space_group_name_H-M   'P 1'
_cell_length_a   3.48690371
_cell_length_b   5.59646476
_cell_length_c   4.63082151
_cell_angle_alpha   90.00000283
_cell_angle_beta   90.00035002
_cell_angle_gamma   89.99999857
_symmetry_Int_Tables_number   1
_chemical_formula_structural   CoAsS
_chemical_formula_sum   'Co2 As2 S2'
_cell_volume   90.36739629
_cell_formula_units_Z   2
loop_
 _symmetry_equiv_pos_site_id
 _symmetry_equiv_pos_as_xyz
  1  'x, y, z'
loop_
 _atom_site_type_symbol
 _atom_site_label
 _atom_site_symmetry_multiplicity
 _atom_site_fract_x
 _atom_site_fract_y
 _atom_site_fract_z
 _atom_site_occupancy
  Co  Co0  1  0.24999437  0.00277121  0.73749020  1
  Co  Co1  1  0.75000587  0.50277081  0.26251013  1
  As  As2  1  0.25000429  0.62870522  0.95970456  1
  As  As3  1  0.74999595  0.12870560  0.04029568  1
  S  S4  1  0.25001017  0.37467276  0.54976643  1
  S  S5  1  0.74999005  0.87467229  0.45023384  1
