# generated using pymatgen
data_Nb4AlN3
_symmetry_space_group_name_H-M   'P 1'
_cell_length_a   3.10466739
_cell_length_b   3.10467252
_cell_length_c   24.52684623
_cell_angle_alpha   90.00000000
_cell_angle_beta   90.00000000
_cell_angle_gamma   119.99994529
_symmetry_Int_Tables_number   1
_chemical_formula_structural   Nb4AlN3
_chemical_formula_sum   'Nb8 Al2 N6'
_cell_volume   204.74035756
_cell_formula_units_Z   2
loop_
 _symmetry_equiv_pos_site_id
 _symmetry_equiv_pos_as_xyz
  1  'x, y, z'
loop_
 _atom_site_type_symbol
 _atom_site_label
 _atom_site_symmetry_multiplicity
 _atom_site_fract_x
 _atom_site_fract_y
 _atom_site_fract_z
 _atom_site_occupancy
  Nb  Nb0  1  0.66666601  0.33333229  0.05140225  1
  Nb  Nb1  1  0.33333373  0.66666635  0.55140232  1
  Nb  Nb2  1  0.33333373  0.66666635  0.94859791  1
  Nb  Nb3  1  0.66666601  0.33333229  0.44859783  1
  Nb  Nb4  1  0.00000241  0.00000483  0.15937061  1
  Nb  Nb5  1  -0.00000241  -0.00000483  0.65937069  1
  Nb  Nb6  1  -0.00000241  -0.00000483  0.84062954  1
  Nb  Nb7  1  0.00000241  0.00000483  0.34062947  1
  Al  Al8  1  0.66667405  0.33334837  0.25000004  1
  Al  Al9  1  0.33332569  0.66665026  0.75000012  1
  N  N10  1  0.00000000  0.00000000  0.00000000  1
  N  N11  1  0.00000000  0.00000000  0.50000008  1
  N  N12  1  0.33333473  0.66666834  0.10655306  1
  N  N13  1  0.66666501  0.33333029  0.60655314  1
  N  N14  1  0.66666501  0.33333029  0.89344709  1
  N  N15  1  0.33333473  0.66666834  0.39344702  1
