# generated using pymatgen
data_MgTaBe2
_symmetry_space_group_name_H-M   'P 1'
_cell_length_a   2.84785662
_cell_length_b   2.84785662
_cell_length_c   6.77004959
_cell_angle_alpha   90.00000000
_cell_angle_beta   90.00000000
_cell_angle_gamma   90.00000000
_symmetry_Int_Tables_number   1
_chemical_formula_structural   MgTaBe2
_chemical_formula_sum   'Mg1 Ta1 Be2'
_cell_volume   54.90704736
_cell_formula_units_Z   1
loop_
 _symmetry_equiv_pos_site_id
 _symmetry_equiv_pos_as_xyz
  1  'x, y, z'
loop_
 _atom_site_type_symbol
 _atom_site_label
 _atom_site_symmetry_multiplicity
 _atom_site_fract_x
 _atom_site_fract_y
 _atom_site_fract_z
 _atom_site_occupancy
  Mg  Mg0  1  0.50000059  0.50000059  0.50000003  1
  Ta  Ta1  1  0.50000059  0.50000059  0.00000000  1
  Be  Be2  1  0.00000000  0.00000000  0.24964410  1
  Be  Be3  1  0.00000000  0.00000000  0.75035596  1
