# generated using pymatgen
data_LaAl3
_symmetry_space_group_name_H-M   'P 1'
_cell_length_a   6.70986134
_cell_length_b   6.70994247
_cell_length_c   4.61138737
_cell_angle_alpha   90.00000000
_cell_angle_beta   90.00000000
_cell_angle_gamma   119.99960002
_symmetry_Int_Tables_number   1
_chemical_formula_structural   LaAl3
_chemical_formula_sum   'La2 Al6'
_cell_volume   179.80274974
_cell_formula_units_Z   2
loop_
 _symmetry_equiv_pos_site_id
 _symmetry_equiv_pos_as_xyz
  1  'x, y, z'
loop_
 _atom_site_type_symbol
 _atom_site_label
 _atom_site_symmetry_multiplicity
 _atom_site_fract_x
 _atom_site_fract_y
 _atom_site_fract_z
 _atom_site_occupancy
  La  La0  1  0.66667002  0.33334050  0.25000014  1
  La  La1  1  0.33332934  0.66665941  0.75000043  1
  Al  Al2  1  0.72415636  0.86208362  0.25000014  1
  Al  Al3  1  0.13792634  0.86208366  0.25000014  1
  Al  Al4  1  0.13791483  0.27582995  0.25000014  1
  Al  Al5  1  0.27584300  0.13791629  0.75000043  1
  Al  Al6  1  0.86207302  0.13791625  0.75000043  1
  Al  Al7  1  0.86208454  0.72416995  0.75000043  1
