# generated using pymatgen
data_YHfBe2
_symmetry_space_group_name_H-M   'P 1'
_cell_length_a   5.33789296
_cell_length_b   5.33789296
_cell_length_c   5.33789296
_cell_angle_alpha   137.11251328
_cell_angle_beta   137.11251328
_cell_angle_gamma   62.26498165
_symmetry_Int_Tables_number   1
_chemical_formula_structural   YHfBe2
_chemical_formula_sum   'Y1 Hf1 Be2'
_cell_volume   69.60057979
_cell_formula_units_Z   1
loop_
 _symmetry_equiv_pos_site_id
 _symmetry_equiv_pos_as_xyz
  1  'x, y, z'
loop_
 _atom_site_type_symbol
 _atom_site_label
 _atom_site_symmetry_multiplicity
 _atom_site_fract_x
 _atom_site_fract_y
 _atom_site_fract_z
 _atom_site_occupancy
  Y  Y0  1  0.75000090  0.25000012  0.50000077  1
  Hf  Hf1  1  0.50000024  0.50000024  0.00000000  1
  Be  Be2  1  0.00000000  0.00000000  0.00000000  1
  Be  Be3  1  0.25000012  0.75000090  0.50000077  1
