# generated using pymatgen
data_BeNb2Mo
_symmetry_space_group_name_H-M   'P 1'
_cell_length_a   5.15497435
_cell_length_b   5.15497435
_cell_length_c   5.15497435
_cell_angle_alpha   136.81000491
_cell_angle_beta   136.81000491
_cell_angle_gamma   62.73050993
_symmetry_Int_Tables_number   1
_chemical_formula_structural   BeNb2Mo
_chemical_formula_sum   'Be1 Nb2 Mo1'
_cell_volume   63.37639653
_cell_formula_units_Z   1
loop_
 _symmetry_equiv_pos_site_id
 _symmetry_equiv_pos_as_xyz
  1  'x, y, z'
loop_
 _atom_site_type_symbol
 _atom_site_label
 _atom_site_symmetry_multiplicity
 _atom_site_fract_x
 _atom_site_fract_y
 _atom_site_fract_z
 _atom_site_occupancy
  Be  Be0  1  0.49999996  0.49999996  0.00000000  1
  Nb  Nb1  1  0.00000000  0.00000000  0.00000000  1
  Nb  Nb2  1  0.24999998  0.74999889  0.49999891  1
  Mo  Mo3  1  0.74999889  0.24999998  0.49999891  1
