# generated using pymatgen
data_Y5(MoO6)2
_symmetry_space_group_name_H-M   'P 1'
_cell_length_a   6.77789600
_cell_length_b   6.77789600
_cell_length_c   7.52403001
_cell_angle_alpha   73.69715781
_cell_angle_beta   73.69715781
_cell_angle_gamma   50.08064975
_symmetry_Int_Tables_number   1
_chemical_formula_structural   Y5(MoO6)2
_chemical_formula_sum   'Y5 Mo2 O12'
_cell_volume   252.05258634
_cell_formula_units_Z   1
loop_
 _symmetry_equiv_pos_site_id
 _symmetry_equiv_pos_as_xyz
  1  'x, y, z'
loop_
 _atom_site_type_symbol
 _atom_site_label
 _atom_site_symmetry_multiplicity
 _atom_site_fract_x
 _atom_site_fract_y
 _atom_site_fract_z
 _atom_site_occupancy
  Y  Y0  1  0.50000006  0.50000006  0.49999968  1
  Y  Y1  1  0.81512807  0.81512807  0.82188781  1
  Y  Y2  1  0.80581202  0.80581202  0.36054682  1
  Y  Y3  1  0.19418811  0.19418811  0.63945254  1
  Y  Y4  1  0.18487206  0.18487206  0.17811156  1
  Mo  Mo5  1  0.71810435  0.28189549  -0.00000037  1
  Mo  Mo6  1  0.28189549  0.71810435  -0.00000037  1
  O  O7  1  0.59757988  0.09314046  0.57487180  1
  O  O8  1  0.90685966  0.40242025  0.42512756  1
  O  O9  1  0.40242025  0.90685966  0.42512756  1
  O  O10  1  0.07988885  0.59241975  0.08268773  1
  O  O11  1  0.50049510  0.50049510  0.20482740  1
  O  O12  1  0.49950503  0.49950503  0.79517196  1
  O  O13  1  0.00081902  0.00081902  0.81665591  1
  O  O14  1  0.99918111  0.99918111  0.18334346  1
  O  O15  1  0.59241975  0.07988885  0.08268773  1
  O  O16  1  0.92011128  0.40758038  0.91731163  1
  O  O17  1  0.40758038  0.92011128  0.91731163  1
  O  O18  1  0.09314046  0.59757988  0.57487180  1
