# generated using pymatgen
data_HfBeCd2
_symmetry_space_group_name_H-M   'P 1'
_cell_length_a   4.68229109
_cell_length_b   4.68229109
_cell_length_c   4.68229109
_cell_angle_alpha   119.98347244
_cell_angle_beta   119.98347244
_cell_angle_gamma   90.02862896
_symmetry_Int_Tables_number   1
_chemical_formula_structural   HfBeCd2
_chemical_formula_sum   'Hf1 Be1 Cd2'
_cell_volume   72.60535461
_cell_formula_units_Z   1
loop_
 _symmetry_equiv_pos_site_id
 _symmetry_equiv_pos_as_xyz
  1  'x, y, z'
loop_
 _atom_site_type_symbol
 _atom_site_label
 _atom_site_symmetry_multiplicity
 _atom_site_fract_x
 _atom_site_fract_y
 _atom_site_fract_z
 _atom_site_occupancy
  Hf  Hf0  1  0.49999962  0.49999962  0.00000000  1
  Be  Be1  1  0.74999973  0.24999981  0.49999992  1
  Cd  Cd2  1  0.00000000  0.00000000  0.00000000  1
  Cd  Cd3  1  0.24999981  0.74999973  0.49999992  1
