# generated using pymatgen
data_Mn4BeSb
_symmetry_space_group_name_H-M   'P 1'
_cell_length_a   4.75074604
_cell_length_b   4.75074604
_cell_length_c   4.75074604
_cell_angle_alpha   60.00000000
_cell_angle_beta   60.00000000
_cell_angle_gamma   60.00000000
_symmetry_Int_Tables_number   1
_chemical_formula_structural   Mn4BeSb
_chemical_formula_sum   'Mn4 Be1 Sb1'
_cell_volume   75.81767225
_cell_formula_units_Z   1
loop_
 _symmetry_equiv_pos_site_id
 _symmetry_equiv_pos_as_xyz
  1  'x, y, z'
loop_
 _atom_site_type_symbol
 _atom_site_label
 _atom_site_symmetry_multiplicity
 _atom_site_fract_x
 _atom_site_fract_y
 _atom_site_fract_z
 _atom_site_occupancy
  Mn  Mn0  1  0.12179669  0.62606683  0.62606683  1
  Mn  Mn1  1  0.62606683  0.62606683  0.62606683  1
  Mn  Mn2  1  0.62606683  0.12179669  0.62606683  1
  Mn  Mn3  1  0.62606683  0.62606683  0.12179669  1
  Be  Be4  1  0.00000000  0.00000000  0.00000000  1
  Sb  Sb5  1  0.24999965  0.24999965  0.24999965  1
