# generated using pymatgen
data_TbRe2SiC
_symmetry_space_group_name_H-M   'P 1'
_cell_length_a   5.81993884
_cell_length_b   5.81993884
_cell_length_c   7.29638653
_cell_angle_alpha   90.00000000
_cell_angle_beta   90.00000000
_cell_angle_gamma   140.28535884
_symmetry_Int_Tables_number   1
_chemical_formula_structural   TbRe2SiC
_chemical_formula_sum   'Tb2 Re4 Si2 C2'
_cell_volume   157.91425668
_cell_formula_units_Z   2
loop_
 _symmetry_equiv_pos_site_id
 _symmetry_equiv_pos_as_xyz
  1  'x, y, z'
loop_
 _atom_site_type_symbol
 _atom_site_label
 _atom_site_symmetry_multiplicity
 _atom_site_fract_x
 _atom_site_fract_y
 _atom_site_fract_z
 _atom_site_occupancy
  Tb  Tb0  1  0.04255185  0.95744752  0.75000036  1
  Tb  Tb1  1  0.95744752  0.04255185  0.25000012  1
  Re  Re2  1  0.67343500  0.32656437  0.43907568  1
  Re  Re3  1  0.32656437  0.67343500  0.93907592  1
  Re  Re4  1  0.67343500  0.32656437  0.06092455  1
  Re  Re5  1  0.32656437  0.67343500  0.56092479  1
  Si  Si6  1  0.76538793  0.23461145  0.75000036  1
  Si  Si7  1  0.23461145  0.76538793  0.25000012  1
  C  C8  1  0.49999969  0.49999969  0.00000000  1
  C  C9  1  0.49999969  0.49999969  0.50000024  1
