# generated using pymatgen
data_US2
_symmetry_space_group_name_H-M   'P 1'
_cell_length_a   7.28755980
_cell_length_b   7.28755381
_cell_length_c   3.94756549
_cell_angle_alpha   90.00000000
_cell_angle_beta   90.00000000
_cell_angle_gamma   120.00040126
_symmetry_Int_Tables_number   1
_chemical_formula_structural   US2
_chemical_formula_sum   'U3 S6'
_cell_volume   181.56081554
_cell_formula_units_Z   3
loop_
 _symmetry_equiv_pos_site_id
 _symmetry_equiv_pos_as_xyz
  1  'x, y, z'
loop_
 _atom_site_type_symbol
 _atom_site_label
 _atom_site_symmetry_multiplicity
 _atom_site_fract_x
 _atom_site_fract_y
 _atom_site_fract_z
 _atom_site_occupancy
  U  U0  1  0.66659884  0.33332840  0.50000057  1
  U  U1  1  0.33326894  0.66666931  0.50000057  1
  U  U2  1  -0.00008476  -0.00000175  0.00000000  1
  S  S3  1  0.74134732  0.74140074  0.50000057  1
  S  S4  1  0.99994056  0.25859623  0.50000057  1
  S  S5  1  0.25851795  0.00000447  0.50000057  1
  S  S6  1  0.40589690  0.40594826  0.00000000  1
  S  S7  1  -0.00005561  0.59404879  0.00000000  1
  S  S8  1  0.59397220  0.00000282  0.00000000  1
