# generated using pymatgen
data_Be2CoTe
_symmetry_space_group_name_H-M   'P 1'
_cell_length_a   4.63619139
_cell_length_b   4.63619139
_cell_length_c   4.63619139
_cell_angle_alpha   133.55616702
_cell_angle_beta   133.55616702
_cell_angle_gamma   67.78206072
_symmetry_Int_Tables_number   1
_chemical_formula_structural   Be2CoTe
_chemical_formula_sum   'Be2 Co1 Te1'
_cell_volume   51.44147525
_cell_formula_units_Z   1
loop_
 _symmetry_equiv_pos_site_id
 _symmetry_equiv_pos_as_xyz
  1  'x, y, z'
loop_
 _atom_site_type_symbol
 _atom_site_label
 _atom_site_symmetry_multiplicity
 _atom_site_fract_x
 _atom_site_fract_y
 _atom_site_fract_z
 _atom_site_occupancy
  Be  Be0  1  0.00000000  0.00000000  0.00000000  1
  Be  Be1  1  0.24999996  0.74999997  0.50000001  1
  Co  Co2  1  0.49999993  0.49999993  0.00000000  1
  Te  Te3  1  0.74999997  0.24999996  0.50000001  1
