# generated using pymatgen
data_Er2NiSn6
_symmetry_space_group_name_H-M   'P 1'
_cell_length_a   11.50934413
_cell_length_b   11.50934413
_cell_length_c   4.41137814
_cell_angle_alpha   90.00000000
_cell_angle_beta   90.00000000
_cell_angle_gamma   158.19987379
_symmetry_Int_Tables_number   1
_chemical_formula_structural   Er2NiSn6
_chemical_formula_sum   'Er2 Ni1 Sn6'
_cell_volume   217.01118423
_cell_formula_units_Z   1
loop_
 _symmetry_equiv_pos_site_id
 _symmetry_equiv_pos_as_xyz
  1  'x, y, z'
loop_
 _atom_site_type_symbol
 _atom_site_label
 _atom_site_symmetry_multiplicity
 _atom_site_fract_x
 _atom_site_fract_y
 _atom_site_fract_z
 _atom_site_occupancy
  Er  Er0  1  0.17758588  0.82241551  0.00000000  1
  Er  Er1  1  0.82241551  0.17758588  0.00000000  1
  Ni  Ni2  1  0.50000069  0.50000069  0.50000021  1
  Sn  Sn3  1  0.43025783  0.56974356  0.00000000  1
  Sn  Sn4  1  0.56974356  0.43025783  0.00000000  1
  Sn  Sn5  1  0.07070005  0.92930134  0.50000021  1
  Sn  Sn6  1  0.92930134  0.07070005  0.50000021  1
  Sn  Sn7  1  0.70491576  0.29508563  0.50000021  1
  Sn  Sn8  1  0.29508563  0.70491576  0.50000021  1
