# generated using pymatgen
data_Ca2BeBr
_symmetry_space_group_name_H-M   'P 1'
_cell_length_a   6.84235613
_cell_length_b   6.84235613
_cell_length_c   6.84235613
_cell_angle_alpha   144.26166852
_cell_angle_beta   144.26166852
_cell_angle_gamma   51.43618538
_symmetry_Int_Tables_number   1
_chemical_formula_structural   Ca2BeBr
_chemical_formula_sum   'Ca2 Be1 Br1'
_cell_volume   108.69497991
_cell_formula_units_Z   1
loop_
 _symmetry_equiv_pos_site_id
 _symmetry_equiv_pos_as_xyz
  1  'x, y, z'
loop_
 _atom_site_type_symbol
 _atom_site_label
 _atom_site_symmetry_multiplicity
 _atom_site_fract_x
 _atom_site_fract_y
 _atom_site_fract_z
 _atom_site_occupancy
  Ca  Ca0  1  0.00000000  0.00000000  0.00000000  1
  Ca  Ca1  1  0.24999990  0.75000011  0.50000021  1
  Be  Be2  1  0.49999979  0.49999979  0.00000000  1
  Br  Br3  1  0.75000011  0.24999990  0.50000021  1
