# generated using pymatgen
data_ThTlCuSe3
_symmetry_space_group_name_H-M   'P 1'
_cell_length_a   7.50102596
_cell_length_b   7.50102596
_cell_length_c   10.91658427
_cell_angle_alpha   90.00000000
_cell_angle_beta   90.00000000
_cell_angle_gamma   147.49479040
_symmetry_Int_Tables_number   1
_chemical_formula_structural   ThTlCuSe3
_chemical_formula_sum   'Th2 Tl2 Cu2 Se6'
_cell_volume   330.07042290
_cell_formula_units_Z   2
loop_
 _symmetry_equiv_pos_site_id
 _symmetry_equiv_pos_as_xyz
  1  'x, y, z'
loop_
 _atom_site_type_symbol
 _atom_site_label
 _atom_site_symmetry_multiplicity
 _atom_site_fract_x
 _atom_site_fract_y
 _atom_site_fract_z
 _atom_site_occupancy
  Th  Th0  1  0.00000000  0.00000000  0.00000000  1
  Th  Th1  1  0.00000000  0.00000000  0.49999980  1
  Tl  Tl2  1  0.74884338  0.25115563  0.74999971  1
  Tl  Tl3  1  0.25115563  0.74884338  0.24999990  1
  Cu  Cu4  1  0.46571535  0.53428365  0.74999971  1
  Cu  Cu5  1  0.53428365  0.46571535  0.24999990  1
  Se  Se6  1  0.36690139  0.63309762  0.93588445  1
  Se  Se7  1  0.63309762  0.36690139  0.43588465  1
  Se  Se8  1  0.36690139  0.63309762  0.56411496  1
  Se  Se9  1  0.63309762  0.36690139  0.06411516  1
  Se  Se10  1  0.06887153  0.93112748  0.74999971  1
  Se  Se11  1  0.93112748  0.06887153  0.24999990  1
