# generated using pymatgen
data_Sr2ZnMoO6
_symmetry_space_group_name_H-M   'P 1'
_cell_length_a   5.65312809
_cell_length_b   5.65312809
_cell_length_c   5.65312809
_cell_angle_alpha   120.79840154
_cell_angle_beta   120.79840154
_cell_angle_gamma   88.62260271
_symmetry_Int_Tables_number   1
_chemical_formula_structural   Sr2ZnMoO6
_chemical_formula_sum   'Sr2 Zn1 Mo1 O6'
_cell_volume   126.16603953
_cell_formula_units_Z   1
loop_
 _symmetry_equiv_pos_site_id
 _symmetry_equiv_pos_as_xyz
  1  'x, y, z'
loop_
 _atom_site_type_symbol
 _atom_site_label
 _atom_site_symmetry_multiplicity
 _atom_site_fract_x
 _atom_site_fract_y
 _atom_site_fract_z
 _atom_site_occupancy
  Sr  Sr0  1  0.75000062  0.24999977  0.50000087  1
  Sr  Sr1  1  0.24999975  0.75000062  0.50000085  1
  Zn  Zn2  1  0.00000000  0.00000000  0.00000000  1
  Mo  Mo3  1  0.49999952  0.49999952  0.00000000  1
  O  O4  1  0.26114402  0.26114402  0.00000000  1
  O  O5  1  0.73885503  0.73885503  0.00000000  1
  O  O6  1  0.30647532  0.21501250  0.52148782  1
  O  O7  1  0.69352505  0.78498790  0.47851390  1
  O  O8  1  0.21501248  0.69352640  0.90853888  1
  O  O9  1  0.78498790  0.30647399  0.09146284  1
