# generated using pymatgen
data_CaPdPb
_symmetry_space_group_name_H-M   'P 1'
_cell_length_a   7.94649004
_cell_length_b   7.94649004
_cell_length_c   3.87789408
_cell_angle_alpha   90.00000000
_cell_angle_beta   90.00000000
_cell_angle_gamma   120.00003525
_symmetry_Int_Tables_number   1
_chemical_formula_structural   CaPdPb
_chemical_formula_sum   'Ca3 Pd3 Pb3'
_cell_volume   212.06896019
_cell_formula_units_Z   3
loop_
 _symmetry_equiv_pos_site_id
 _symmetry_equiv_pos_as_xyz
  1  'x, y, z'
loop_
 _atom_site_type_symbol
 _atom_site_label
 _atom_site_symmetry_multiplicity
 _atom_site_fract_x
 _atom_site_fract_y
 _atom_site_fract_z
 _atom_site_occupancy
  Ca  Ca0  1  0.60144842  0.00000060  0.49999947  1
  Ca  Ca1  1  0.00000060  0.60144842  0.49999947  1
  Ca  Ca2  1  0.39855060  0.39855060  0.49999947  1
  Pd  Pd3  1  -0.00000042  -0.00000042  0.49999947  1
  Pd  Pd4  1  0.33333421  0.66666586  0.00000000  1
  Pd  Pd5  1  0.66666586  0.33333421  0.00000000  1
  Pb  Pb6  1  0.27032458  -0.00000073  0.00000000  1
  Pb  Pb7  1  -0.00000073  0.27032458  0.00000000  1
  Pb  Pb8  1  0.72967469  0.72967469  0.00000000  1
