# generated using pymatgen
data_TaBeRu
_symmetry_space_group_name_H-M   'P 1'
_cell_length_a   3.02281625
_cell_length_b   3.02281625
_cell_length_c   5.24300002
_cell_angle_alpha   90.00000000
_cell_angle_beta   90.00000000
_cell_angle_gamma   120.00000243
_symmetry_Int_Tables_number   1
_chemical_formula_structural   TaBeRu
_chemical_formula_sum   'Ta1 Be1 Ru1'
_cell_volume   41.48909653
_cell_formula_units_Z   1
loop_
 _symmetry_equiv_pos_site_id
 _symmetry_equiv_pos_as_xyz
  1  'x, y, z'
loop_
 _atom_site_type_symbol
 _atom_site_label
 _atom_site_symmetry_multiplicity
 _atom_site_fract_x
 _atom_site_fract_y
 _atom_site_fract_z
 _atom_site_occupancy
  Ta  Ta0  1  0.33333336  0.66666791  0.68758324  1
  Be  Be1  1  -0.00000000  0.00000000  0.02282817  1
  Ru  Ru2  1  0.66666791  0.33333336  0.28958759  1
