# generated using pymatgen
data_NdCrGe3
_symmetry_space_group_name_H-M   'P 1'
_cell_length_a   6.15380053
_cell_length_b   6.15380053
_cell_length_c   5.73929480
_cell_angle_alpha   90.00000000
_cell_angle_beta   90.00000000
_cell_angle_gamma   119.99704825
_symmetry_Int_Tables_number   1
_chemical_formula_structural   NdCrGe3
_chemical_formula_sum   'Nd2 Cr2 Ge6'
_cell_volume   188.23002981
_cell_formula_units_Z   2
loop_
 _symmetry_equiv_pos_site_id
 _symmetry_equiv_pos_as_xyz
  1  'x, y, z'
loop_
 _atom_site_type_symbol
 _atom_site_label
 _atom_site_symmetry_multiplicity
 _atom_site_fract_x
 _atom_site_fract_y
 _atom_site_fract_z
 _atom_site_occupancy
  Nd  Nd0  1  0.33328360  0.66671720  0.74999937  1
  Nd  Nd1  1  0.66671720  0.33328360  0.24999979  1
  Cr  Cr2  1  0.00000000  0.00000000  0.00000000  1
  Cr  Cr3  1  0.00000000  0.00000000  0.49999958  1
  Ge  Ge4  1  0.19186309  0.38359926  0.24999979  1
  Ge  Ge5  1  0.61640153  0.80813771  0.24999979  1
  Ge  Ge6  1  0.19182303  0.80817777  0.24999979  1
  Ge  Ge7  1  0.80813771  0.61640153  0.74999937  1
  Ge  Ge8  1  0.38359926  0.19186309  0.74999937  1
  Ge  Ge9  1  0.80817777  0.19182303  0.74999937  1
