# generated using pymatgen
data_BaTl4
_symmetry_space_group_name_H-M   'P 1'
_cell_length_a   6.88046095
_cell_length_b   6.88046095
_cell_length_c   10.67050843
_cell_angle_alpha   66.05050861
_cell_angle_beta   66.05050861
_cell_angle_gamma   46.88045354
_symmetry_Int_Tables_number   1
_chemical_formula_structural   BaTl4
_chemical_formula_sum   'Ba2 Tl8'
_cell_volume   330.66993794
_cell_formula_units_Z   2
loop_
 _symmetry_equiv_pos_site_id
 _symmetry_equiv_pos_as_xyz
  1  'x, y, z'
loop_
 _atom_site_type_symbol
 _atom_site_label
 _atom_site_symmetry_multiplicity
 _atom_site_fract_x
 _atom_site_fract_y
 _atom_site_fract_z
 _atom_site_occupancy
  Ba  Ba0  1  0.18498486  0.18498486  0.28881115  1
  Ba  Ba1  1  0.81501441  0.81501441  0.71118954  1
  Tl  Tl2  1  0.39628533  0.39628533  0.45921766  1
  Tl  Tl3  1  0.60371393  0.60371393  0.54078303  1
  Tl  Tl4  1  0.15811976  0.15811976  0.96069587  1
  Tl  Tl5  1  0.84187951  0.84187951  0.03930482  1
  Tl  Tl6  1  0.11383032  0.11383032  0.69070842  1
  Tl  Tl7  1  0.88616895  0.88616895  0.30929228  1
  Tl  Tl8  1  0.54626249  0.54626249  0.11989683  1
  Tl  Tl9  1  0.45373678  0.45373678  0.88010386  1
