# generated using pymatgen
data_Na2UO4
_symmetry_space_group_name_H-M   'P 1'
_cell_length_a   6.64654596
_cell_length_b   6.64639231
_cell_length_c   4.33533634
_cell_angle_alpha   70.96736667
_cell_angle_beta   70.96352731
_cell_angle_gamma   38.06910602
_symmetry_Int_Tables_number   1
_chemical_formula_structural   Na2UO4
_chemical_formula_sum   'Na2 U1 O4'
_cell_volume   110.84032090
_cell_formula_units_Z   1
loop_
 _symmetry_equiv_pos_site_id
 _symmetry_equiv_pos_as_xyz
  1  'x, y, z'
loop_
 _atom_site_type_symbol
 _atom_site_label
 _atom_site_symmetry_multiplicity
 _atom_site_fract_x
 _atom_site_fract_y
 _atom_site_fract_z
 _atom_site_occupancy
  Na  Na0  1  0.64652567  0.64652669  0.35347358  1
  Na  Na1  1  0.35347399  0.35347502  0.64652526  1
  U  U2  1  0.00000000  0.00000000  0.00000000  1
  O  O3  1  0.83576995  0.83577098  0.16422930  1
  O  O4  1  0.16422971  0.16423074  0.83576954  1
  O  O5  1  -0.00000026  0.00000026  0.49999988  1
  O  O6  1  0.50000009  0.50000060  -0.00000046  1
