# generated using pymatgen
data_LiHf4Be
_symmetry_space_group_name_H-M   'P 1'
_cell_length_a   5.67281192
_cell_length_b   5.67281192
_cell_length_c   5.67281192
_cell_angle_alpha   60.00000000
_cell_angle_beta   60.00000000
_cell_angle_gamma   60.00000000
_symmetry_Int_Tables_number   1
_chemical_formula_structural   LiHf4Be
_chemical_formula_sum   'Li1 Hf4 Be1'
_cell_volume   129.08630150
_cell_formula_units_Z   1
loop_
 _symmetry_equiv_pos_site_id
 _symmetry_equiv_pos_as_xyz
  1  'x, y, z'
loop_
 _atom_site_type_symbol
 _atom_site_label
 _atom_site_symmetry_multiplicity
 _atom_site_fract_x
 _atom_site_fract_y
 _atom_site_fract_z
 _atom_site_occupancy
  Li  Li0  1  0.24999976  0.24999976  0.24999976  1
  Hf  Hf1  1  0.12358029  0.62547261  0.62547261  1
  Hf  Hf2  1  0.62547261  0.62547261  0.62547261  1
  Hf  Hf3  1  0.62547261  0.12358029  0.62547261  1
  Hf  Hf4  1  0.62547261  0.62547261  0.12358029  1
  Be  Be5  1  0.00000000  0.00000000  0.00000000  1
