# generated using pymatgen
data_BaHgBr
_symmetry_space_group_name_H-M   'P 1'
_cell_length_a   5.55433480
_cell_length_b   5.55433480
_cell_length_c   5.55433480
_cell_angle_alpha   60.00000000
_cell_angle_beta   60.00000000
_cell_angle_gamma   60.00000000
_symmetry_Int_Tables_number   1
_chemical_formula_structural   BaHgBr
_chemical_formula_sum   'Ba1 Hg1 Br1'
_cell_volume   121.16610975
_cell_formula_units_Z   1
loop_
 _symmetry_equiv_pos_site_id
 _symmetry_equiv_pos_as_xyz
  1  'x, y, z'
loop_
 _atom_site_type_symbol
 _atom_site_label
 _atom_site_symmetry_multiplicity
 _atom_site_fract_x
 _atom_site_fract_y
 _atom_site_fract_z
 _atom_site_occupancy
  Ba  Ba0  1  0.75000042  0.75000042  0.75000042  1
  Hg  Hg1  1  0.50000028  0.50000028  0.50000028  1
  Br  Br2  1  0.00000000  0.00000000  0.00000000  1
