# generated using pymatgen
data_SmAlPt
_symmetry_space_group_name_H-M   'P 1'
_cell_length_a   4.45347691
_cell_length_b   7.07599476
_cell_length_c   7.82061223
_cell_angle_alpha   90.00000000
_cell_angle_beta   90.00000000
_cell_angle_gamma   90.00000000
_symmetry_Int_Tables_number   1
_chemical_formula_structural   SmAlPt
_chemical_formula_sum   'Sm4 Al4 Pt4'
_cell_volume   246.44922687
_cell_formula_units_Z   4
loop_
 _symmetry_equiv_pos_site_id
 _symmetry_equiv_pos_as_xyz
  1  'x, y, z'
loop_
 _atom_site_type_symbol
 _atom_site_label
 _atom_site_symmetry_multiplicity
 _atom_site_fract_x
 _atom_site_fract_y
 _atom_site_fract_z
 _atom_site_occupancy
  Sm  Sm0  1  0.25000017  0.02729752  0.68277443  1
  Sm  Sm1  1  0.75000052  0.47270214  0.18277457  1
  Sm  Sm2  1  0.75000052  0.97270181  0.31722529  1
  Sm  Sm3  1  0.25000017  0.52729718  0.81722515  1
  Al  Al4  1  0.25000017  0.14742807  0.06760520  1
  Al  Al5  1  0.75000052  0.35257160  0.56760506  1
  Al  Al6  1  0.75000052  0.85257126  0.93239451  1
  Al  Al7  1  0.25000017  0.64742773  0.43239466  1
  Pt  Pt8  1  0.25000017  0.27950316  0.38914117  1
  Pt  Pt9  1  0.75000052  0.22049650  0.88914103  1
  Pt  Pt10  1  0.75000052  0.72049616  0.61085854  1
  Pt  Pt11  1  0.25000017  0.77950283  0.11085868  1
