# generated using pymatgen
data_ZrB4Ir3
_symmetry_space_group_name_H-M   'P 1'
_cell_length_a   7.66438399
_cell_length_b   7.66438106
_cell_length_c   3.53838705
_cell_angle_alpha   90.00000000
_cell_angle_beta   90.00000000
_cell_angle_gamma   119.99998495
_symmetry_Int_Tables_number   1
_chemical_formula_structural   ZrB4Ir3
_chemical_formula_sum   'Zr2 B8 Ir6'
_cell_volume   180.00740823
_cell_formula_units_Z   2
loop_
 _symmetry_equiv_pos_site_id
 _symmetry_equiv_pos_as_xyz
  1  'x, y, z'
loop_
 _atom_site_type_symbol
 _atom_site_label
 _atom_site_symmetry_multiplicity
 _atom_site_fract_x
 _atom_site_fract_y
 _atom_site_fract_z
 _atom_site_occupancy
  Zr  Zr0  1  0.66666630  0.33333310  0.75000062  1
  Zr  Zr1  1  0.33333297  0.66666651  0.25000021  1
  B  B2  1  0.44720721  0.05277495  0.25000021  1
  B  B3  1  0.94722446  0.39443206  0.25000021  1
  B  B4  1  0.60556710  0.55279231  0.25000021  1
  B  B5  1  0.55279207  0.94722466  0.75000062  1
  B  B6  1  0.05277481  0.60556755  0.75000062  1
  B  B7  1  0.39443217  0.44720731  0.75000062  1
  B  B8  1  0.00000000  0.00000000  0.00000000  1
  B  B9  1  0.00000000  0.00000000  0.50000042  1
  Ir  Ir10  1  0.33307153  0.25963431  0.25000021  1
  Ir  Ir11  1  0.74036519  0.07343692  0.25000021  1
  Ir  Ir12  1  0.92656223  0.66692785  0.25000021  1
  Ir  Ir13  1  0.66692774  0.74036530  0.75000062  1
  Ir  Ir14  1  0.25963408  0.92656269  0.75000062  1
  Ir  Ir15  1  0.07343705  0.33307177  0.75000062  1
