# generated using pymatgen
data_Th(SiIr)2
_symmetry_space_group_name_H-M   'P 1'
_cell_length_a   4.20908428
_cell_length_b   4.20908428
_cell_length_c   9.96619637
_cell_angle_alpha   90.00000000
_cell_angle_beta   90.00000000
_cell_angle_gamma   90.00000000
_symmetry_Int_Tables_number   1
_chemical_formula_structural   Th(SiIr)2
_chemical_formula_sum   'Th2 Si4 Ir4'
_cell_volume   176.56502631
_cell_formula_units_Z   2
loop_
 _symmetry_equiv_pos_site_id
 _symmetry_equiv_pos_as_xyz
  1  'x, y, z'
loop_
 _atom_site_type_symbol
 _atom_site_label
 _atom_site_symmetry_multiplicity
 _atom_site_fract_x
 _atom_site_fract_y
 _atom_site_fract_z
 _atom_site_occupancy
  Th  Th0  1  0.24999975  0.24999975  0.74561075  1
  Th  Th1  1  0.74999924  0.74999924  0.25438961  1
  Si  Si2  1  0.74999924  0.24999975  0.50000018  1
  Si  Si3  1  0.24999975  0.74999924  0.50000018  1
  Si  Si4  1  0.24999975  0.24999975  0.13122461  1
  Si  Si5  1  0.74999924  0.74999924  0.86877575  1
  Ir  Ir6  1  0.74999924  0.24999975  0.00000000  1
  Ir  Ir7  1  0.24999975  0.74999924  0.00000000  1
  Ir  Ir8  1  0.24999975  0.24999975  0.37398228  1
  Ir  Ir9  1  0.74999924  0.74999924  0.62601809  1
