# generated using pymatgen
data_YB2Ru
_symmetry_space_group_name_H-M   'P 1'
_cell_length_a   5.31083217
_cell_length_b   5.91825548
_cell_length_c   6.37609883
_cell_angle_alpha   90.00000000
_cell_angle_beta   90.00000000
_cell_angle_gamma   90.00000000
_symmetry_Int_Tables_number   1
_chemical_formula_structural   YB2Ru
_chemical_formula_sum   'Y4 B8 Ru4'
_cell_volume   200.40628008
_cell_formula_units_Z   4
loop_
 _symmetry_equiv_pos_site_id
 _symmetry_equiv_pos_as_xyz
  1  'x, y, z'
loop_
 _atom_site_type_symbol
 _atom_site_label
 _atom_site_symmetry_multiplicity
 _atom_site_fract_x
 _atom_site_fract_y
 _atom_site_fract_z
 _atom_site_occupancy
  Y  Y0  1  0.24999990  0.01121279  0.33738299  1
  Y  Y1  1  0.74999969  0.48878759  0.83738308  1
  Y  Y2  1  0.74999969  0.98878797  0.66261719  1
  Y  Y3  1  0.24999990  0.51121317  0.16261710  1
  B  B4  1  0.08537084  0.37106905  0.53728909  1
  B  B5  1  0.91462875  0.12893133  0.03728900  1
  B  B6  1  0.58537064  0.62893172  0.46271109  1
  B  B7  1  0.41462895  0.87106943  0.96271118  1
  B  B8  1  0.91462875  0.62893172  0.46271109  1
  B  B9  1  0.08537084  0.87106943  0.96271118  1
  B  B10  1  0.41462895  0.37106905  0.53728909  1
  B  B11  1  0.58537064  0.12893133  0.03728900  1
  Ru  Ru12  1  0.24999990  0.18431358  0.81687187  1
  Ru  Ru13  1  0.74999969  0.31568680  0.31687178  1
  Ru  Ru14  1  0.74999969  0.81568718  0.18312831  1
  Ru  Ru15  1  0.24999990  0.68431396  0.68312840  1
