# generated using pymatgen
data_CaSiBHO5
_symmetry_space_group_name_H-M   'P 1'
_cell_length_a   4.84281622
_cell_length_b   7.64295715
_cell_length_c   9.70673947
_cell_angle_alpha   90.00000000
_cell_angle_beta   90.22601530
_cell_angle_gamma   90.00000000
_symmetry_Int_Tables_number   1
_chemical_formula_structural   CaSiBHO5
_chemical_formula_sum   'Ca4 Si4 B4 H4 O20'
_cell_volume   359.27699323
_cell_formula_units_Z   4
loop_
 _symmetry_equiv_pos_site_id
 _symmetry_equiv_pos_as_xyz
  1  'x, y, z'
loop_
 _atom_site_type_symbol
 _atom_site_label
 _atom_site_symmetry_multiplicity
 _atom_site_fract_x
 _atom_site_fract_y
 _atom_site_fract_z
 _atom_site_occupancy
  Ca  Ca0  1  0.99197134  0.39373420  0.83644286  1
  Ca  Ca1  1  0.00802841  0.89373439  0.66355759  1
  Ca  Ca2  1  0.00802878  0.60626617  0.16355753  1
  Ca  Ca3  1  0.99197171  0.10626599  0.33644280  1
  Si  Si4  1  0.52927365  0.73243167  0.91592848  1
  Si  Si5  1  0.47072610  0.23243149  0.58407197  1
  Si  Si6  1  0.47072647  0.26756870  0.08407191  1
  Si  Si7  1  0.52927402  0.76756888  0.41592842  1
  B  B8  1  0.42843793  0.91135671  0.15902139  1
  B  B9  1  0.57156256  0.41135653  0.34097894  1
  B  B10  1  0.57156218  0.08864366  0.84097900  1
  B  B11  1  0.42843756  0.58864385  0.65902145  1
  H  H12  1  0.80999820  0.53516680  0.57734638  1
  H  H13  1  0.19000155  0.03516662  0.92265407  1
  H  H14  1  0.80999857  0.96483375  0.07734632  1
  H  H15  1  0.19000192  0.46483357  0.42265401  1
  O  O16  1  0.67827760  0.33524745  0.21121308  1
  O  O17  1  0.26100152  0.41373179  0.33669527  1
  O  O18  1  0.73899897  0.91373198  0.16330505  1
  O  O19  1  0.68737140  0.58897504  0.35428580  1
  O  O20  1  0.31262909  0.08897486  0.14571453  1
  O  O21  1  0.31262872  0.41102533  0.64571459  1
  O  O22  1  0.68737102  0.91102552  0.85428586  1
  O  O23  1  0.32172289  0.83524764  0.28878725  1
  O  O24  1  0.67827722  0.16475273  0.71121314  1
  O  O25  1  0.24170709  0.09547586  0.53599154  1
  O  O26  1  0.32593151  0.69758060  0.54235271  1
  O  O27  1  0.67406823  0.19758041  0.95764775  1
  O  O28  1  0.67406860  0.30241977  0.45764768  1
  O  O29  1  0.32593189  0.80241996  0.04235265  1
  O  O30  1  0.75829302  0.90452451  0.46400885  1
  O  O31  1  0.24170747  0.40452433  0.03599148  1
  O  O32  1  0.26100115  0.08626840  0.83669534  1
  O  O33  1  0.75829265  0.59547604  0.96400891  1
  O  O34  1  0.32172252  0.66475292  0.78878731  1
  O  O35  1  0.73899859  0.58626858  0.66330512  1
