# generated using pymatgen
data_K2BeGa
_symmetry_space_group_name_H-M   'P 1'
_cell_length_a   3.51011117
_cell_length_b   3.51011117
_cell_length_c   10.01026004
_cell_angle_alpha   90.00000000
_cell_angle_beta   90.00000000
_cell_angle_gamma   90.00000000
_symmetry_Int_Tables_number   1
_chemical_formula_structural   K2BeGa
_chemical_formula_sum   'K2 Be1 Ga1'
_cell_volume   123.33521703
_cell_formula_units_Z   1
loop_
 _symmetry_equiv_pos_site_id
 _symmetry_equiv_pos_as_xyz
  1  'x, y, z'
loop_
 _atom_site_type_symbol
 _atom_site_label
 _atom_site_symmetry_multiplicity
 _atom_site_fract_x
 _atom_site_fract_y
 _atom_site_fract_z
 _atom_site_occupancy
  K  K0  1  0.00000000  0.00000000  0.92138401  1
  K  K1  1  0.49999983  0.49999983  0.32685189  1
  Be  Be2  1  0.00000000  0.00000000  0.59685952  1
  Ga  Ga3  1  0.49999983  0.49999983  0.65490457  1
