# generated using pymatgen
data_B4W
_symmetry_space_group_name_H-M   'P 1'
_cell_length_a   6.96991264
_cell_length_b   6.96991264
_cell_length_c   3.94244629
_cell_angle_alpha   90.00000000
_cell_angle_beta   90.00000000
_cell_angle_gamma   90.00000000
_symmetry_Int_Tables_number   1
_chemical_formula_structural   B4W
_chemical_formula_sum   'B16 W4'
_cell_volume   191.52278759
_cell_formula_units_Z   4
loop_
 _symmetry_equiv_pos_site_id
 _symmetry_equiv_pos_as_xyz
  1  'x, y, z'
loop_
 _atom_site_type_symbol
 _atom_site_label
 _atom_site_symmetry_multiplicity
 _atom_site_fract_x
 _atom_site_fract_y
 _atom_site_fract_z
 _atom_site_occupancy
  B  B0  1  0.00000000  0.00000000  0.19931944  1
  B  B1  1  0.31890888  0.47540233  0.50000047  1
  B  B2  1  0.68109074  0.52459730  0.50000047  1
  B  B3  1  0.47540233  0.68109074  0.50000047  1
  B  B4  1  0.52459730  0.31890888  0.50000047  1
  B  B5  1  0.81890869  0.02459748  0.50000047  1
  B  B6  1  0.18109093  0.97540214  0.50000047  1
  B  B7  1  0.02459748  0.18109093  0.50000047  1
  B  B8  1  0.97540214  0.81890869  0.50000047  1
  B  B9  1  0.91184080  0.58815863  0.50000047  1
  B  B10  1  0.58815863  0.08815882  0.50000047  1
  B  B11  1  0.41184099  0.91184080  0.50000047  1
  B  B12  1  0.49999981  0.49999981  0.19931944  1
  B  B13  1  0.00000000  0.00000000  0.80068151  1
  B  B14  1  0.49999981  0.49999981  0.80068151  1
  B  B15  1  0.08815882  0.41184099  0.50000047  1
  W  W16  1  0.38391845  0.11608136  0.00000000  1
  W  W17  1  0.88391826  0.38391845  0.00000000  1
  W  W18  1  0.11608136  0.61608117  0.00000000  1
  W  W19  1  0.61608117  0.88391826  0.00000000  1
