# generated using pymatgen
data_BeZn2Si
_symmetry_space_group_name_H-M   'P 1'
_cell_length_a   4.64995364
_cell_length_b   4.64995364
_cell_length_c   4.64995364
_cell_angle_alpha   131.82412874
_cell_angle_beta   131.82412874
_cell_angle_gamma   70.50693864
_symmetry_Int_Tables_number   1
_chemical_formula_structural   BeZn2Si
_chemical_formula_sum   'Be1 Zn2 Si1'
_cell_volume   54.70579433
_cell_formula_units_Z   1
loop_
 _symmetry_equiv_pos_site_id
 _symmetry_equiv_pos_as_xyz
  1  'x, y, z'
loop_
 _atom_site_type_symbol
 _atom_site_label
 _atom_site_symmetry_multiplicity
 _atom_site_fract_x
 _atom_site_fract_y
 _atom_site_fract_z
 _atom_site_occupancy
  Be  Be0  1  0.49999962  0.49999962  0.00000000  1
  Zn  Zn1  1  0.00000000  0.00000000  0.00000000  1
  Zn  Zn2  1  0.24999981  0.74999878  0.49999897  1
  Si  Si3  1  0.74999878  0.24999981  0.49999897  1
