# generated using pymatgen
data_TePb
_symmetry_space_group_name_H-M   'P 1'
_cell_length_a   4.63366811
_cell_length_b   4.63337269
_cell_length_c   13.10427343
_cell_angle_alpha   90.00000000
_cell_angle_beta   90.00000000
_cell_angle_gamma   90.00000000
_symmetry_Int_Tables_number   1
_chemical_formula_structural   TePb
_chemical_formula_sum   'Te4 Pb4'
_cell_volume   281.34234608
_cell_formula_units_Z   4
loop_
 _symmetry_equiv_pos_site_id
 _symmetry_equiv_pos_as_xyz
  1  'x, y, z'
loop_
 _atom_site_type_symbol
 _atom_site_label
 _atom_site_symmetry_multiplicity
 _atom_site_fract_x
 _atom_site_fract_y
 _atom_site_fract_z
 _atom_site_occupancy
  Te  Te0  1  0.75000031  0.74957372  0.37500637  1
  Te  Te1  1  0.25000010  0.24957401  0.12499350  1
  Te  Te2  1  0.25000010  0.25042570  0.62499336  1
  Te  Te3  1  0.75000031  0.75042541  0.87500624  1
  Pb  Pb4  1  0.75000031  0.74946611  0.12499177  1
  Pb  Pb5  1  0.25000010  0.24946640  0.37500810  1
  Pb  Pb6  1  0.25000010  0.25053331  0.87500797  1
  Pb  Pb7  1  0.75000031  0.75053302  0.62499164  1
