# generated using pymatgen
data_YMnB4
_symmetry_space_group_name_H-M   'P 1'
_cell_length_a   3.42709234
_cell_length_b   5.90358453
_cell_length_c   11.41272826
_cell_angle_alpha   90.00000000
_cell_angle_beta   90.00000000
_cell_angle_gamma   90.00000000
_symmetry_Int_Tables_number   1
_chemical_formula_structural   YMnB4
_chemical_formula_sum   'Y4 Mn4 B16'
_cell_volume   230.90379403
_cell_formula_units_Z   4
loop_
 _symmetry_equiv_pos_site_id
 _symmetry_equiv_pos_as_xyz
  1  'x, y, z'
loop_
 _atom_site_type_symbol
 _atom_site_label
 _atom_site_symmetry_multiplicity
 _atom_site_fract_x
 _atom_site_fract_y
 _atom_site_fract_z
 _atom_site_occupancy
  Y  Y0  1  0.00000000  0.12569316  0.84952114  1
  Y  Y1  1  0.00000000  0.87430607  0.15047902  1
  Y  Y2  1  0.00000000  0.37430646  0.34952106  1
  Y  Y3  1  0.00000000  0.62569278  0.65047909  1
  Mn  Mn4  1  0.00000000  0.12704132  0.58347341  1
  Mn  Mn5  1  0.00000000  0.87295791  0.41652674  1
  Mn  Mn6  1  0.00000000  0.37295830  0.08347333  1
  Mn  Mn7  1  0.00000000  0.62704093  0.91652682  1
  B  B8  1  0.49999966  0.52504191  0.19076370  1
  B  B9  1  0.49999966  0.47495732  0.80923645  1
  B  B10  1  0.49999966  0.88793348  0.54627868  1
  B  B11  1  0.49999966  0.11206575  0.45372147  1
  B  B12  1  0.49999966  0.61206537  0.04627860  1
  B  B13  1  0.49999966  0.38793387  0.95372155  1
  B  B14  1  0.49999966  0.86147105  0.96789784  1
  B  B15  1  0.49999966  0.78072198  0.81649396  1
  B  B16  1  0.49999966  0.63852780  0.46789776  1
  B  B17  1  0.49999966  0.36147144  0.53210239  1
  B  B18  1  0.49999966  0.02504230  0.30923638  1
  B  B19  1  0.49999966  0.21927725  0.18350619  1
  B  B20  1  0.49999966  0.71927687  0.31649389  1
  B  B21  1  0.49999966  0.28072237  0.68350626  1
  B  B22  1  0.49999966  0.13852818  0.03210231  1
  B  B23  1  0.49999966  0.97495693  0.69076378  1
