# generated using pymatgen
data_La2Sb
_symmetry_space_group_name_H-M   'P 1'
_cell_length_a   9.68084259
_cell_length_b   9.68084259
_cell_length_c   9.68084259
_cell_angle_alpha   152.21984128
_cell_angle_beta   152.21984128
_cell_angle_gamma   39.69234778
_symmetry_Int_Tables_number   1
_chemical_formula_structural   La2Sb
_chemical_formula_sum   'La4 Sb2'
_cell_volume   196.71947581
_cell_formula_units_Z   2
loop_
 _symmetry_equiv_pos_site_id
 _symmetry_equiv_pos_as_xyz
  1  'x, y, z'
loop_
 _atom_site_type_symbol
 _atom_site_label
 _atom_site_symmetry_multiplicity
 _atom_site_fract_x
 _atom_site_fract_y
 _atom_site_fract_z
 _atom_site_occupancy
  La  La0  1  0.00000000  0.49999942  0.49999942  1
  La  La1  1  0.49999942  0.00000000  0.49999942  1
  La  La2  1  0.67891944  0.67891944  0.00000000  1
  La  La3  1  0.32108024  0.32108024  0.00000000  1
  Sb  Sb4  1  0.86174069  0.86174069  0.00000000  1
  Sb  Sb5  1  0.13825899  0.13825899  0.00000000  1
