# generated using pymatgen
data_BeBi4P
_symmetry_space_group_name_H-M   'P 1'
_cell_length_a   6.40702652
_cell_length_b   6.40702652
_cell_length_c   6.40702652
_cell_angle_alpha   60.00000000
_cell_angle_beta   60.00000000
_cell_angle_gamma   60.00000000
_symmetry_Int_Tables_number   1
_chemical_formula_structural   BeBi4P
_chemical_formula_sum   'Be1 Bi4 P1'
_cell_volume   185.97499956
_cell_formula_units_Z   1
loop_
 _symmetry_equiv_pos_site_id
 _symmetry_equiv_pos_as_xyz
  1  'x, y, z'
loop_
 _atom_site_type_symbol
 _atom_site_label
 _atom_site_symmetry_multiplicity
 _atom_site_fract_x
 _atom_site_fract_y
 _atom_site_fract_z
 _atom_site_occupancy
  Be  Be0  1  0.00000000  0.00000000  0.00000000  1
  Bi  Bi1  1  0.12519949  0.62493356  0.62493356  1
  Bi  Bi2  1  0.62493356  0.62493356  0.62493356  1
  Bi  Bi3  1  0.62493356  0.12519949  0.62493356  1
  Bi  Bi4  1  0.62493356  0.62493356  0.12519949  1
  P  P5  1  0.24999990  0.24999990  0.24999990  1
