# generated using pymatgen
data_Ag(Mo3Se4)2
_symmetry_space_group_name_H-M   'P 1'
_cell_length_a   6.79869155
_cell_length_b   6.79869155
_cell_length_c   6.79869155
_cell_angle_alpha   91.63727286
_cell_angle_beta   91.63727286
_cell_angle_gamma   91.63727286
_symmetry_Int_Tables_number   1
_chemical_formula_structural   Ag(Mo3Se4)2
_chemical_formula_sum   'Ag1 Mo6 Se8'
_cell_volume   313.85814189
_cell_formula_units_Z   1
loop_
 _symmetry_equiv_pos_site_id
 _symmetry_equiv_pos_as_xyz
  1  'x, y, z'
loop_
 _atom_site_type_symbol
 _atom_site_label
 _atom_site_symmetry_multiplicity
 _atom_site_fract_x
 _atom_site_fract_y
 _atom_site_fract_z
 _atom_site_occupancy
  Ag  Ag0  1  0.00000000  0.00000000  0.00000000  1
  Mo  Mo1  1  0.76712093  0.58259325  0.44835026  1
  Mo  Mo2  1  0.58259343  0.44835047  0.76712081  1
  Mo  Mo3  1  0.44835036  0.76712101  0.58259318  1
  Mo  Mo4  1  0.23287794  0.41740563  0.55164835  1
  Mo  Mo5  1  0.41740544  0.55164841  0.23287780  1
  Mo  Mo6  1  0.55164851  0.23287787  0.41740543  1
  Se  Se7  1  0.77562334  0.77562334  0.77562314  1
  Se  Se8  1  0.22437553  0.22437553  0.22437547  1
  Se  Se9  1  0.25853156  0.62221466  0.87531619  1
  Se  Se10  1  0.62221431  0.87531624  0.25853133  1
  Se  Se11  1  0.87531645  0.25853141  0.62221433  1
  Se  Se12  1  0.74146732  0.37778421  0.12468242  1
  Se  Se13  1  0.37778457  0.12468264  0.74146728  1
  Se  Se14  1  0.12468243  0.74146746  0.37778428  1
