# generated using pymatgen
data_TaBeIn
_symmetry_space_group_name_H-M   'P 1'
_cell_length_a   2.97533249
_cell_length_b   2.97533249
_cell_length_c   6.80082198
_cell_angle_alpha   90.00000000
_cell_angle_beta   90.00000000
_cell_angle_gamma   119.99998390
_symmetry_Int_Tables_number   1
_chemical_formula_structural   TaBeIn
_chemical_formula_sum   'Ta1 Be1 In1'
_cell_volume   52.13905053
_cell_formula_units_Z   1
loop_
 _symmetry_equiv_pos_site_id
 _symmetry_equiv_pos_as_xyz
  1  'x, y, z'
loop_
 _atom_site_type_symbol
 _atom_site_label
 _atom_site_symmetry_multiplicity
 _atom_site_fract_x
 _atom_site_fract_y
 _atom_site_fract_z
 _atom_site_occupancy
  Ta  Ta0  1  0.33333435  0.66666793  0.69210154  1
  Be  Be1  1  0.00000000  0.00000000  0.99223434  1
  In  In2  1  0.66666793  0.33333435  0.31566355  1
