# generated using pymatgen
data_Ho5Ge3
_symmetry_space_group_name_H-M   'P 1'
_cell_length_a   8.45118186
_cell_length_b   8.45119404
_cell_length_c   6.38263355
_cell_angle_alpha   90.00000000
_cell_angle_beta   90.00000000
_cell_angle_gamma   119.99995234
_symmetry_Int_Tables_number   1
_chemical_formula_structural   Ho5Ge3
_chemical_formula_sum   'Ho10 Ge6'
_cell_volume   394.79011621
_cell_formula_units_Z   2
loop_
 _symmetry_equiv_pos_site_id
 _symmetry_equiv_pos_as_xyz
  1  'x, y, z'
loop_
 _atom_site_type_symbol
 _atom_site_label
 _atom_site_symmetry_multiplicity
 _atom_site_fract_x
 _atom_site_fract_y
 _atom_site_fract_z
 _atom_site_occupancy
  Ho  Ho0  1  0.66666901  0.33333830  0.00000000  1
  Ho  Ho1  1  0.33333031  0.66666142  0.49999972  1
  Ho  Ho2  1  0.33333031  0.66666142  0.00000000  1
  Ho  Ho3  1  0.66666901  0.33333830  0.49999972  1
  Ho  Ho4  1  0.00000166  0.75842712  0.24999986  1
  Ho  Ho5  1  0.24157487  0.24157278  0.24999986  1
  Ho  Ho6  1  0.75842119  -0.00000018  0.24999986  1
  Ho  Ho7  1  0.99999766  0.24157261  0.74999958  1
  Ho  Ho8  1  0.75842445  0.75842694  0.74999958  1
  Ho  Ho9  1  0.24157883  -0.00000006  0.74999958  1
  Ge  Ge10  1  0.99999935  0.39357593  0.24999986  1
  Ge  Ge11  1  0.60642302  0.60642365  0.24999986  1
  Ge  Ge12  1  0.39357988  -0.00000009  0.24999986  1
  Ge  Ge13  1  -0.00000003  0.60642380  0.74999958  1
  Ge  Ge14  1  0.39357630  0.39357607  0.74999958  1
  Ge  Ge15  1  0.60642013  -0.00000014  0.74999958  1
