# generated using pymatgen
data_Ba4InSn
_symmetry_space_group_name_H-M   'P 1'
_cell_length_a   7.09915775
_cell_length_b   7.09915775
_cell_length_c   7.09915775
_cell_angle_alpha   60.00000000
_cell_angle_beta   60.00000000
_cell_angle_gamma   60.00000000
_symmetry_Int_Tables_number   1
_chemical_formula_structural   Ba4InSn
_chemical_formula_sum   'Ba4 In1 Sn1'
_cell_volume   252.99123925
_cell_formula_units_Z   1
loop_
 _symmetry_equiv_pos_site_id
 _symmetry_equiv_pos_as_xyz
  1  'x, y, z'
loop_
 _atom_site_type_symbol
 _atom_site_label
 _atom_site_symmetry_multiplicity
 _atom_site_fract_x
 _atom_site_fract_y
 _atom_site_fract_z
 _atom_site_occupancy
  Ba  Ba0  1  0.12309070  0.62563609  0.62563609  1
  Ba  Ba1  1  0.62563609  0.62563609  0.62563609  1
  Ba  Ba2  1  0.62563609  0.12309070  0.62563609  1
  Ba  Ba3  1  0.62563609  0.62563609  0.12309070  1
  In  In4  1  0.24999987  0.24999987  0.24999987  1
  Sn  Sn5  1  0.00000000  0.00000000  0.00000000  1
