# generated using pymatgen
data_CuAs4S3Cl
_symmetry_space_group_name_H-M   'P 1'
_cell_length_a   7.24015053
_cell_length_b   10.91525264
_cell_length_c   11.09030897
_cell_angle_alpha   90.00000000
_cell_angle_beta   90.00000000
_cell_angle_gamma   90.00000000
_symmetry_Int_Tables_number   1
_chemical_formula_structural   CuAs4S3Cl
_chemical_formula_sum   'Cu4 As16 S12 Cl4'
_cell_volume   876.44573812
_cell_formula_units_Z   4
loop_
 _symmetry_equiv_pos_site_id
 _symmetry_equiv_pos_as_xyz
  1  'x, y, z'
loop_
 _atom_site_type_symbol
 _atom_site_label
 _atom_site_symmetry_multiplicity
 _atom_site_fract_x
 _atom_site_fract_y
 _atom_site_fract_z
 _atom_site_occupancy
  Cu  Cu0  1  0.49999996  0.30124585  0.75000007  1
  Cu  Cu1  1  0.00000000  0.69875391  0.25000002  1
  Cu  Cu2  1  0.49999996  0.69875391  0.25000002  1
  Cu  Cu3  1  0.00000000  0.30124585  0.75000007  1
  As  As4  1  0.74999995  0.25056883  0.22052335  1
  As  As5  1  0.24999998  0.74943093  0.77947674  1
  As  As6  1  0.24999998  0.25056883  0.27947669  1
  As  As7  1  0.42464610  0.63745251  0.94317702  1
  As  As8  1  0.92464606  0.36254725  0.05682307  1
  As  As9  1  0.07535387  0.36254725  0.44317697  1
  As  As10  1  0.57535383  0.63745251  0.55682312  1
  As  As11  1  0.74999995  0.74943093  0.72052340  1
  As  As12  1  0.07535387  0.63745251  0.94317702  1
  As  As13  1  0.92464606  0.63745251  0.55682312  1
  As  As14  1  0.42464610  0.36254725  0.44317697  1
  As  As15  1  0.74999995  0.06471626  0.94476016  1
  As  As16  1  0.24999998  0.93528349  0.05523994  1
  As  As17  1  0.74999995  0.93528349  0.44476011  1
  As  As18  1  0.24999998  0.06471626  0.55523998  1
  As  As19  1  0.57535383  0.36254725  0.05682307  1
  S  S20  1  0.49209806  0.79664925  0.07053863  1
  S  S21  1  0.99209802  0.20335051  0.92946146  1
  S  S22  1  0.00790191  0.20335051  0.57053868  1
  S  S23  1  0.50790187  0.79664925  0.42946142  1
  S  S24  1  0.50790187  0.20335051  0.92946146  1
  S  S25  1  0.00790191  0.79664925  0.07053863  1
  S  S26  1  0.74999995  0.05529295  0.14973855  1
  S  S27  1  0.49209806  0.20335051  0.57053868  1
  S  S28  1  0.24999998  0.94470681  0.85026154  1
  S  S29  1  0.74999995  0.94470681  0.64973860  1
  S  S30  1  0.24999998  0.05529295  0.35026149  1
  S  S31  1  0.99209802  0.79664925  0.42946142  1
  Cl  Cl32  1  0.74999995  0.55466818  0.23673323  1
  Cl  Cl33  1  0.74999995  0.44533158  0.73673328  1
  Cl  Cl34  1  0.24999998  0.55466818  0.26326682  1
  Cl  Cl35  1  0.24999998  0.44533158  0.76326686  1
