# generated using pymatgen
data_TiBe2P
_symmetry_space_group_name_H-M   'P 1'
_cell_length_a   4.58219225
_cell_length_b   4.58219225
_cell_length_c   4.58219225
_cell_angle_alpha   136.43232508
_cell_angle_beta   136.43232508
_cell_angle_gamma   63.31265740
_symmetry_Int_Tables_number   1
_chemical_formula_structural   TiBe2P
_chemical_formula_sum   'Ti1 Be2 P1'
_cell_volume   45.11417917
_cell_formula_units_Z   1
loop_
 _symmetry_equiv_pos_site_id
 _symmetry_equiv_pos_as_xyz
  1  'x, y, z'
loop_
 _atom_site_type_symbol
 _atom_site_label
 _atom_site_symmetry_multiplicity
 _atom_site_fract_x
 _atom_site_fract_y
 _atom_site_fract_z
 _atom_site_occupancy
  Ti  Ti0  1  0.75000014  0.24999973  0.50000041  1
  Be  Be1  1  0.00000000  0.00000000  0.00000000  1
  Be  Be2  1  0.24999973  0.75000014  0.50000041  1
  P  P3  1  0.49999946  0.49999946  0.00000000  1
