# generated using pymatgen
data_MnAsRu
_symmetry_space_group_name_H-M   'P 1'
_cell_length_a   6.53659300
_cell_length_b   6.53659300
_cell_length_c   3.62070631
_cell_angle_alpha   90.00000000
_cell_angle_beta   90.00000000
_cell_angle_gamma   119.99852801
_symmetry_Int_Tables_number   1
_chemical_formula_structural   MnAsRu
_chemical_formula_sum   'Mn3 As3 Ru3'
_cell_volume   133.97792958
_cell_formula_units_Z   3
loop_
 _symmetry_equiv_pos_site_id
 _symmetry_equiv_pos_as_xyz
  1  'x, y, z'
loop_
 _atom_site_type_symbol
 _atom_site_label
 _atom_site_symmetry_multiplicity
 _atom_site_fract_x
 _atom_site_fract_y
 _atom_site_fract_z
 _atom_site_occupancy
  Mn  Mn0  1  0.59460776  0.00000366  0.50000051  1
  Mn  Mn1  1  0.00000366  0.59460776  0.50000051  1
  Mn  Mn2  1  0.40539601  0.40539601  0.50000051  1
  As  As3  1  0.00000013  0.00000013  0.50000051  1
  As  As4  1  0.33333308  0.66666673  0.00000000  1
  As  As5  1  0.66666673  0.33333308  0.00000000  1
  Ru  Ru6  1  0.25798756  -0.00000276  0.00000000  1
  Ru  Ru7  1  -0.00000276  0.25798756  0.00000000  1
  Ru  Ru8  1  0.74200855  0.74200855  0.00000000  1
