# generated using pymatgen
data_Zr2BeIn
_symmetry_space_group_name_H-M   'P 1'
_cell_length_a   3.11632230
_cell_length_b   3.11632230
_cell_length_c   8.00134995
_cell_angle_alpha   90.00000000
_cell_angle_beta   90.00000000
_cell_angle_gamma   90.00000000
_symmetry_Int_Tables_number   1
_chemical_formula_structural   Zr2BeIn
_chemical_formula_sum   'Zr2 Be1 In1'
_cell_volume   77.70482716
_cell_formula_units_Z   1
loop_
 _symmetry_equiv_pos_site_id
 _symmetry_equiv_pos_as_xyz
  1  'x, y, z'
loop_
 _atom_site_type_symbol
 _atom_site_label
 _atom_site_symmetry_multiplicity
 _atom_site_fract_x
 _atom_site_fract_y
 _atom_site_fract_z
 _atom_site_occupancy
  Zr  Zr0  1  0.00000000  0.00000000  0.99504284  1
  Zr  Zr1  1  0.49999963  0.49999963  0.29123755  1
  Be  Be2  1  0.00000000  0.00000000  0.50735301  1
  In  In3  1  0.49999963  0.49999963  0.70636662  1
