# generated using pymatgen
data_BaNi2Br
_symmetry_space_group_name_H-M   'P 1'
_cell_length_a   6.37916596
_cell_length_b   6.37916596
_cell_length_c   6.37916596
_cell_angle_alpha   140.81011278
_cell_angle_beta   140.81011278
_cell_angle_gamma   56.62529883
_symmetry_Int_Tables_number   1
_chemical_formula_structural   BaNi2Br
_chemical_formula_sum   'Ba1 Ni2 Br1'
_cell_volume   102.81644939
_cell_formula_units_Z   1
loop_
 _symmetry_equiv_pos_site_id
 _symmetry_equiv_pos_as_xyz
  1  'x, y, z'
loop_
 _atom_site_type_symbol
 _atom_site_label
 _atom_site_symmetry_multiplicity
 _atom_site_fract_x
 _atom_site_fract_y
 _atom_site_fract_z
 _atom_site_occupancy
  Ba  Ba0  1  0.24999985  0.74999965  0.49999979  1
  Ni  Ni1  1  0.00000000  0.00000000  0.00000000  1
  Ni  Ni2  1  0.49999970  0.49999970  0.00000000  1
  Br  Br3  1  0.74999965  0.24999985  0.49999979  1
