# generated using pymatgen
data_Dy3Ge3Ru2
_symmetry_space_group_name_H-M   'P 1'
_cell_length_a   5.82381282
_cell_length_b   5.82381282
_cell_length_c   13.96038061
_cell_angle_alpha   90.00000000
_cell_angle_beta   90.00000000
_cell_angle_gamma   137.05975053
_symmetry_Int_Tables_number   1
_chemical_formula_structural   Dy3Ge3Ru2
_chemical_formula_sum   'Dy6 Ge6 Ru4'
_cell_volume   322.55904162
_cell_formula_units_Z   2
loop_
 _symmetry_equiv_pos_site_id
 _symmetry_equiv_pos_as_xyz
  1  'x, y, z'
loop_
 _atom_site_type_symbol
 _atom_site_label
 _atom_site_symmetry_multiplicity
 _atom_site_fract_x
 _atom_site_fract_y
 _atom_site_fract_z
 _atom_site_occupancy
  Dy  Dy0  1  0.07751735  0.92248317  0.88695322  1
  Dy  Dy1  1  0.92248317  0.07751735  0.38695324  1
  Dy  Dy2  1  0.07751735  0.92248317  0.61304672  1
  Dy  Dy3  1  0.92248317  0.07751735  0.11304674  1
  Dy  Dy4  1  0.35216435  0.64783618  0.74999997  1
  Dy  Dy5  1  0.64783618  0.35216435  0.24999999  1
  Ge  Ge6  1  0.38356519  0.61643533  0.95915656  1
  Ge  Ge7  1  0.61643533  0.38356519  0.45915658  1
  Ge  Ge8  1  0.38356519  0.61643533  0.54084337  1
  Ge  Ge9  1  0.61643533  0.38356519  0.04084340  1
  Ge  Ge10  1  0.66188918  0.33811134  0.74999997  1
  Ge  Ge11  1  0.33811134  0.66188918  0.24999999  1
  Ru  Ru12  1  0.21371969  0.78628083  0.41691186  1
  Ru  Ru13  1  0.78628083  0.21371969  0.91691184  1
  Ru  Ru14  1  0.21371969  0.78628083  0.08308812  1
  Ru  Ru15  1  0.78628083  0.21371969  0.58308810  1
