# generated using pymatgen
data_NdCo4B
_symmetry_space_group_name_H-M   'P 1'
_cell_length_a   5.07725631
_cell_length_b   5.07725631
_cell_length_c   6.83408174
_cell_angle_alpha   90.00000000
_cell_angle_beta   90.00000000
_cell_angle_gamma   120.02781855
_symmetry_Int_Tables_number   1
_chemical_formula_structural   NdCo4B
_chemical_formula_sum   'Nd2 Co8 B2'
_cell_volume   152.52715409
_cell_formula_units_Z   2
loop_
 _symmetry_equiv_pos_site_id
 _symmetry_equiv_pos_as_xyz
  1  'x, y, z'
loop_
 _atom_site_type_symbol
 _atom_site_label
 _atom_site_symmetry_multiplicity
 _atom_site_fract_x
 _atom_site_fract_y
 _atom_site_fract_z
 _atom_site_occupancy
  Nd  Nd0  1  0.00000000  0.00000000  0.00000000  1
  Nd  Nd1  1  0.00000000  0.00000000  0.49999987  1
  Co  Co2  1  0.66712479  0.33287496  0.00000000  1
  Co  Co3  1  0.33287496  0.66712479  0.00000000  1
  Co  Co4  1  -0.00000011  0.49999999  0.28805456  1
  Co  Co5  1  0.49999987  0.49999987  0.28766544  1
  Co  Co6  1  0.49999999  -0.00000011  0.28805456  1
  Co  Co7  1  0.49999999  -0.00000011  0.71194519  1
  Co  Co8  1  0.49999987  0.49999987  0.71233431  1
  Co  Co9  1  -0.00000011  0.49999999  0.71194519  1
  B  B10  1  0.66654493  0.33345481  0.49999987  1
  B  B11  1  0.33345481  0.66654493  0.49999987  1
