# generated using pymatgen
data_Ba4PdRu
_symmetry_space_group_name_H-M   'P 1'
_cell_length_a   6.67938802
_cell_length_b   6.67938802
_cell_length_c   6.67938802
_cell_angle_alpha   60.00000000
_cell_angle_beta   60.00000000
_cell_angle_gamma   60.00000000
_symmetry_Int_Tables_number   1
_chemical_formula_structural   Ba4PdRu
_chemical_formula_sum   'Ba4 Pd1 Ru1'
_cell_volume   210.71479075
_cell_formula_units_Z   1
loop_
 _symmetry_equiv_pos_site_id
 _symmetry_equiv_pos_as_xyz
  1  'x, y, z'
loop_
 _atom_site_type_symbol
 _atom_site_label
 _atom_site_symmetry_multiplicity
 _atom_site_fract_x
 _atom_site_fract_y
 _atom_site_fract_z
 _atom_site_occupancy
  Ba  Ba0  1  0.12445847  0.62518076  0.62518076  1
  Ba  Ba1  1  0.62518076  0.62518076  0.62518076  1
  Ba  Ba2  1  0.62518076  0.12445847  0.62518076  1
  Ba  Ba3  1  0.62518076  0.62518076  0.12445847  1
  Pd  Pd4  1  0.24999997  0.24999997  0.24999997  1
  Ru  Ru5  1  0.00000000  0.00000000  0.00000000  1
