# generated using pymatgen
data_Sn4Pd
_symmetry_space_group_name_H-M   'P 1'
_cell_length_a   6.71301128
_cell_length_b   6.71301128
_cell_length_c   6.50617855
_cell_angle_alpha   90.00000000
_cell_angle_beta   90.00000000
_cell_angle_gamma   121.64814591
_symmetry_Int_Tables_number   1
_chemical_formula_structural   Sn4Pd
_chemical_formula_sum   'Sn8 Pd2'
_cell_volume   249.59529163
_cell_formula_units_Z   2
loop_
 _symmetry_equiv_pos_site_id
 _symmetry_equiv_pos_as_xyz
  1  'x, y, z'
loop_
 _atom_site_type_symbol
 _atom_site_label
 _atom_site_symmetry_multiplicity
 _atom_site_fract_x
 _atom_site_fract_y
 _atom_site_fract_z
 _atom_site_occupancy
  Sn  Sn0  1  0.45410530  0.20617915  0.92006767  1
  Sn  Sn1  1  0.04589546  0.29382161  0.92006767  1
  Sn  Sn2  1  0.79382237  0.54589622  0.57993267  1
  Sn  Sn3  1  0.70617990  0.95410606  0.57993267  1
  Sn  Sn4  1  0.54589622  0.79382237  0.07993255  1
  Sn  Sn5  1  0.95410606  0.70617990  0.07993255  1
  Sn  Sn6  1  0.20617915  0.45410530  0.42006756  1
  Sn  Sn7  1  0.29382161  0.04589546  0.42006756  1
  Pd  Pd8  1  0.25000081  0.75000070  0.75000017  1
  Pd  Pd9  1  0.75000070  0.25000081  0.25000006  1
