# generated using pymatgen
data_NaBeV
_symmetry_space_group_name_H-M   'P 1'
_cell_length_a   6.81078681
_cell_length_b   6.81078681
_cell_length_c   6.81078681
_cell_angle_alpha   157.44552364
_cell_angle_beta   157.44552364
_cell_angle_gamma   32.10985303
_symmetry_Int_Tables_number   1
_chemical_formula_structural   NaBeV
_chemical_formula_sum   'Na1 Be1 V1'
_cell_volume   46.44282963
_cell_formula_units_Z   1
loop_
 _symmetry_equiv_pos_site_id
 _symmetry_equiv_pos_as_xyz
  1  'x, y, z'
loop_
 _atom_site_type_symbol
 _atom_site_label
 _atom_site_symmetry_multiplicity
 _atom_site_fract_x
 _atom_site_fract_y
 _atom_site_fract_z
 _atom_site_occupancy
  Na  Na0  1  0.34220507  0.34220507  0.00000000  1
  Be  Be1  1  0.02347661  0.02347661  0.00000000  1
  V  V2  1  0.63431897  0.63431897  0.00000000  1
