# generated using pymatgen
data_KNaBe2
_symmetry_space_group_name_H-M   'P 1'
_cell_length_a   5.98548114
_cell_length_b   5.98548114
_cell_length_c   2.61328548
_cell_angle_alpha   90.00000000
_cell_angle_beta   90.00000000
_cell_angle_gamma   89.97462918
_symmetry_Int_Tables_number   1
_chemical_formula_structural   KNaBe2
_chemical_formula_sum   'K1 Na1 Be2'
_cell_volume   93.62351602
_cell_formula_units_Z   1
loop_
 _symmetry_equiv_pos_site_id
 _symmetry_equiv_pos_as_xyz
  1  'x, y, z'
loop_
 _atom_site_type_symbol
 _atom_site_label
 _atom_site_symmetry_multiplicity
 _atom_site_fract_x
 _atom_site_fract_y
 _atom_site_fract_z
 _atom_site_occupancy
  K  K0  1  0.50000009  -0.00000024  0.50000086  1
  Na  Na1  1  -0.00000024  0.50000009  0.50000086  1
  Be  Be2  1  0.00000000  0.00000000  0.00000000  1
  Be  Be3  1  0.49999985  0.49999985  0.00000000  1
