# generated using pymatgen
data_BeFeTe2
_symmetry_space_group_name_H-M   'P 1'
_cell_length_a   7.28879275
_cell_length_b   7.28879275
_cell_length_c   7.28879275
_cell_angle_alpha   151.39754713
_cell_angle_beta   151.39754713
_cell_angle_gamma   40.89374324
_symmetry_Int_Tables_number   1
_chemical_formula_structural   BeFeTe2
_chemical_formula_sum   'Be1 Fe1 Te2'
_cell_volume   88.55807105
_cell_formula_units_Z   1
loop_
 _symmetry_equiv_pos_site_id
 _symmetry_equiv_pos_as_xyz
  1  'x, y, z'
loop_
 _atom_site_type_symbol
 _atom_site_label
 _atom_site_symmetry_multiplicity
 _atom_site_fract_x
 _atom_site_fract_y
 _atom_site_fract_z
 _atom_site_occupancy
  Be  Be0  1  0.49999975  0.49999975  0.00000000  1
  Fe  Fe1  1  0.75000104  0.24999987  0.50000117  1
  Te  Te2  1  0.00000000  0.00000000  0.00000000  1
  Te  Te3  1  0.24999987  0.75000104  0.50000117  1
