# generated using pymatgen
data_Yb2In8Ir
_symmetry_space_group_name_H-M   'P 1'
_cell_length_a   4.68106412
_cell_length_b   4.68106412
_cell_length_c   12.17884472
_cell_angle_alpha   90.00000000
_cell_angle_beta   90.00000000
_cell_angle_gamma   90.00000000
_symmetry_Int_Tables_number   1
_chemical_formula_structural   Yb2In8Ir
_chemical_formula_sum   'Yb2 In8 Ir1'
_cell_volume   266.86724530
_cell_formula_units_Z   1
loop_
 _symmetry_equiv_pos_site_id
 _symmetry_equiv_pos_as_xyz
  1  'x, y, z'
loop_
 _atom_site_type_symbol
 _atom_site_label
 _atom_site_symmetry_multiplicity
 _atom_site_fract_x
 _atom_site_fract_y
 _atom_site_fract_z
 _atom_site_occupancy
  Yb  Yb0  1  0.00000000  0.00000000  0.80633428  1
  Yb  Yb1  1  0.00000000  0.00000000  0.19366534  1
  In  In2  1  0.49999956  0.00000000  0.00000000  1
  In  In3  1  0.00000000  0.49999956  0.00000000  1
  In  In4  1  0.49999956  0.00000000  0.62432377  1
  In  In5  1  0.00000000  0.49999956  0.62432377  1
  In  In6  1  0.49999956  0.00000000  0.37567584  1
  In  In7  1  0.00000000  0.49999956  0.37567584  1
  In  In8  1  0.49999956  0.49999956  0.80709306  1
  In  In9  1  0.49999956  0.49999956  0.19290655  1
  Ir  Ir10  1  0.00000000  0.00000000  0.49999981  1
