# generated using pymatgen
data_Na5As4
_symmetry_space_group_name_H-M   'P 1'
_cell_length_a   5.70736301
_cell_length_b   5.70736301
_cell_length_c   9.63858908
_cell_angle_alpha   71.35473276
_cell_angle_beta   71.35473276
_cell_angle_gamma   47.77424843
_symmetry_Int_Tables_number   1
_chemical_formula_structural   Na5As4
_chemical_formula_sum   'Na5 As4'
_cell_volume   217.81803161
_cell_formula_units_Z   1
loop_
 _symmetry_equiv_pos_site_id
 _symmetry_equiv_pos_as_xyz
  1  'x, y, z'
loop_
 _atom_site_type_symbol
 _atom_site_label
 _atom_site_symmetry_multiplicity
 _atom_site_fract_x
 _atom_site_fract_y
 _atom_site_fract_z
 _atom_site_occupancy
  Na  Na0  1  0.09914909  0.09914909  0.61347934  1
  Na  Na1  1  0.90085073  0.90085073  0.38652087  1
  Na  Na2  1  0.75412954  0.75412954  0.83679549  1
  Na  Na3  1  0.24587028  0.24587028  0.16320472  1
  Na  Na4  1  0.00000000  0.00000000  0.00000000  1
  As  As5  1  0.45549489  0.45549489  0.83097053  1
  As  As6  1  0.54450494  0.54450494  0.16902968  1
  As  As7  1  0.39017684  0.39017684  0.60793397  1
  As  As8  1  0.60982298  0.60982298  0.39206624  1
