# generated using pymatgen
data_LaRh3
_symmetry_space_group_name_H-M   'P 1'
_cell_length_a   9.41999626
_cell_length_b   9.41999626
_cell_length_c   9.41999626
_cell_angle_alpha   32.98377825
_cell_angle_beta   32.98377825
_cell_angle_gamma   32.98377825
_symmetry_Int_Tables_number   1
_chemical_formula_structural   LaRh3
_chemical_formula_sum   'La3 Rh9'
_cell_volume   220.45880435
_cell_formula_units_Z   3
loop_
 _symmetry_equiv_pos_site_id
 _symmetry_equiv_pos_as_xyz
  1  'x, y, z'
loop_
 _atom_site_type_symbol
 _atom_site_label
 _atom_site_symmetry_multiplicity
 _atom_site_fract_x
 _atom_site_fract_y
 _atom_site_fract_z
 _atom_site_occupancy
  La  La0  1  0.00000000  0.00000000  0.00000000  1
  La  La1  1  0.13843225  0.13843225  0.13843268  1
  La  La2  1  0.86156645  0.86156645  0.86156910  1
  Rh  Rh3  1  0.49999935  0.49999935  0.50000089  1
  Rh  Rh4  1  0.33259672  0.33259672  0.33259774  1
  Rh  Rh5  1  0.66740199  0.66740199  0.66740404  1
  Rh  Rh6  1  0.58061670  0.58061670  0.08202417  1
  Rh  Rh7  1  0.08202354  0.58061619  0.58061805  1
  Rh  Rh8  1  0.58061619  0.08202354  0.58061805  1
  Rh  Rh9  1  0.41938200  0.41938200  0.91797761  1
  Rh  Rh10  1  0.41938251  0.91797516  0.41938373  1
  Rh  Rh11  1  0.91797516  0.41938251  0.41938373  1
