# generated using pymatgen
data_BeV2Co
_symmetry_space_group_name_H-M   'P 1'
_cell_length_a   2.90114479
_cell_length_b   2.90114479
_cell_length_c   5.41830401
_cell_angle_alpha   90.00000000
_cell_angle_beta   90.00000000
_cell_angle_gamma   90.00000000
_symmetry_Int_Tables_number   1
_chemical_formula_structural   BeV2Co
_chemical_formula_sum   'Be1 V2 Co1'
_cell_volume   45.60392014
_cell_formula_units_Z   1
loop_
 _symmetry_equiv_pos_site_id
 _symmetry_equiv_pos_as_xyz
  1  'x, y, z'
loop_
 _atom_site_type_symbol
 _atom_site_label
 _atom_site_symmetry_multiplicity
 _atom_site_fract_x
 _atom_site_fract_y
 _atom_site_fract_z
 _atom_site_occupancy
  Be  Be0  1  0.00000000  0.00000000  0.51978307  1
  V  V1  1  0.00000000  0.00000000  0.99015591  1
  V  V2  1  0.49999917  0.49999917  0.26718426  1
  Co  Co3  1  0.49999917  0.49999917  0.72287491  1
