# generated using pymatgen
data_Be2BiSe
_symmetry_space_group_name_H-M   'P 1'
_cell_length_a   3.42813876
_cell_length_b   3.42813876
_cell_length_c   6.74858192
_cell_angle_alpha   90.00000000
_cell_angle_beta   90.00000000
_cell_angle_gamma   90.00000000
_symmetry_Int_Tables_number   1
_chemical_formula_structural   Be2BiSe
_chemical_formula_sum   'Be2 Bi1 Se1'
_cell_volume   79.31024840
_cell_formula_units_Z   1
loop_
 _symmetry_equiv_pos_site_id
 _symmetry_equiv_pos_as_xyz
  1  'x, y, z'
loop_
 _atom_site_type_symbol
 _atom_site_label
 _atom_site_symmetry_multiplicity
 _atom_site_fract_x
 _atom_site_fract_y
 _atom_site_fract_z
 _atom_site_occupancy
  Be  Be0  1  0.00000000  0.00000000  -0.00332166  1
  Be  Be1  1  0.50000018  0.50000018  0.20764226  1
  Bi  Bi2  1  0.00000000  0.00000000  0.40246423  1
  Se  Se3  1  0.50000018  0.50000018  0.89321574  1
