# generated using pymatgen
data_BeTlZn
_symmetry_space_group_name_H-M   'P 1'
_cell_length_a   3.24459443
_cell_length_b   3.24459443
_cell_length_c   6.05021929
_cell_angle_alpha   90.00000000
_cell_angle_beta   90.00000000
_cell_angle_gamma   120.00000271
_symmetry_Int_Tables_number   1
_chemical_formula_structural   BeTlZn
_chemical_formula_sum   'Be1 Tl1 Zn1'
_cell_volume   55.15978591
_cell_formula_units_Z   1
loop_
 _symmetry_equiv_pos_site_id
 _symmetry_equiv_pos_as_xyz
  1  'x, y, z'
loop_
 _atom_site_type_symbol
 _atom_site_label
 _atom_site_symmetry_multiplicity
 _atom_site_fract_x
 _atom_site_fract_y
 _atom_site_fract_z
 _atom_site_occupancy
  Be  Be0  1  0.00000000  0.00000000  0.03251176  1
  Tl  Tl1  1  0.33333395  0.66666781  0.68622013  1
  Zn  Zn2  1  0.66666781  0.33333395  0.28126822  1
