# generated using pymatgen
data_Dy3Mn3Ga2Si
_symmetry_space_group_name_H-M   'P 1'
_cell_length_a   7.02648248
_cell_length_b   7.02648248
_cell_length_c   3.92842851
_cell_angle_alpha   90.00000000
_cell_angle_beta   90.00000000
_cell_angle_gamma   119.99751149
_symmetry_Int_Tables_number   1
_chemical_formula_structural   Dy3Mn3Ga2Si
_chemical_formula_sum   'Dy3 Mn3 Ga2 Si1'
_cell_volume   167.97177507
_cell_formula_units_Z   1
loop_
 _symmetry_equiv_pos_site_id
 _symmetry_equiv_pos_as_xyz
  1  'x, y, z'
loop_
 _atom_site_type_symbol
 _atom_site_label
 _atom_site_symmetry_multiplicity
 _atom_site_fract_x
 _atom_site_fract_y
 _atom_site_fract_z
 _atom_site_occupancy
  Dy  Dy0  1  0.59329628  -0.00003005  0.50000019  1
  Dy  Dy1  1  -0.00003005  0.59329628  0.50000019  1
  Dy  Dy2  1  0.40671254  0.40671254  0.50000019  1
  Mn  Mn3  1  0.21641205  0.99999221  0.00000000  1
  Mn  Mn4  1  0.99999221  0.21641205  0.00000000  1
  Mn  Mn5  1  0.78361980  0.78361980  0.00000000  1
  Ga  Ga6  1  0.33329669  0.66666243  0.00000000  1
  Ga  Ga7  1  0.66666243  0.33329669  0.00000000  1
  Si  Si8  1  0.00003421  0.00003421  0.50000019  1
