# generated using pymatgen
data_Er2CdSe4
_symmetry_space_group_name_H-M   'P 1'
_cell_length_a   8.26489412
_cell_length_b   8.26489412
_cell_length_c   8.26489412
_cell_angle_alpha   60.00000000
_cell_angle_beta   60.00000000
_cell_angle_gamma   60.00000000
_symmetry_Int_Tables_number   1
_chemical_formula_structural   Er2CdSe4
_chemical_formula_sum   'Er4 Cd2 Se8'
_cell_volume   399.20583867
_cell_formula_units_Z   2
loop_
 _symmetry_equiv_pos_site_id
 _symmetry_equiv_pos_as_xyz
  1  'x, y, z'
loop_
 _atom_site_type_symbol
 _atom_site_label
 _atom_site_symmetry_multiplicity
 _atom_site_fract_x
 _atom_site_fract_y
 _atom_site_fract_z
 _atom_site_occupancy
  Er  Er0  1  0.62499971  0.12499994  0.62499971  1
  Er  Er1  1  0.12499994  0.62499971  0.62499971  1
  Er  Er2  1  0.62499971  0.62499971  0.62499971  1
  Er  Er3  1  0.62499971  0.62499971  0.12499994  1
  Cd  Cd4  1  0.00000000  0.00000000  0.00000000  1
  Cd  Cd5  1  0.24999989  0.24999989  0.24999989  1
  Se  Se6  1  0.38238948  0.85283063  0.38238948  1
  Se  Se7  1  0.85283063  0.38238948  0.38238948  1
  Se  Se8  1  0.38238948  0.38238948  0.38238948  1
  Se  Se9  1  0.38238948  0.38238948  0.85283063  1
  Se  Se10  1  0.39716880  0.86760994  0.86760994  1
  Se  Se11  1  0.86760994  0.39716880  0.86760994  1
  Se  Se12  1  0.86760994  0.86760994  0.86760994  1
  Se  Se13  1  0.86760994  0.86760994  0.39716880  1
