# generated using pymatgen
data_Li2Co(WO4)2
_symmetry_space_group_name_H-M   'P 1'
_cell_length_a   6.60149298
_cell_length_b   5.63532468
_cell_length_c   4.94111893
_cell_angle_alpha   63.69428018
_cell_angle_beta   69.01427154
_cell_angle_gamma   56.49044364
_symmetry_Int_Tables_number   1
_chemical_formula_structural   Li2Co(WO4)2
_chemical_formula_sum   'Li2 Co1 W2 O8'
_cell_volume   135.80123308
_cell_formula_units_Z   1
loop_
 _symmetry_equiv_pos_site_id
 _symmetry_equiv_pos_as_xyz
  1  'x, y, z'
loop_
 _atom_site_type_symbol
 _atom_site_label
 _atom_site_symmetry_multiplicity
 _atom_site_fract_x
 _atom_site_fract_y
 _atom_site_fract_z
 _atom_site_occupancy
  Li  Li0  1  0.25498321  0.67123861  0.03864596  1
  Li  Li1  1  0.74501569  0.32876173  0.96135433  1
  Co  Co2  1  -0.00000018  -0.00000007  0.49999996  1
  W  W3  1  0.66591892  0.80273252  0.27143341  1
  W  W4  1  0.33407998  0.19726783  0.72856687  1
  O  O5  1  0.67052197  0.05371573  0.82444774  1
  O  O6  1  0.32947693  0.94628461  0.17555255  1
  O  O7  1  0.81316961  0.43274179  0.24242242  1
  O  O8  1  0.18682929  0.56725856  0.75757787  1
  O  O9  1  0.54184180  0.73202411  0.68686923  1
  O  O10  1  0.45815710  0.26797623  0.31313106  1
  O  O11  1  0.92586207  0.83764589  0.27905931  1
  O  O12  1  0.07413683  0.16235446  0.72094097  1
