# generated using pymatgen
data_Be2HgTe
_symmetry_space_group_name_H-M   'P 1'
_cell_length_a   3.58355233
_cell_length_b   3.58355233
_cell_length_c   5.95867367
_cell_angle_alpha   90.00000000
_cell_angle_beta   90.00000000
_cell_angle_gamma   90.00000000
_symmetry_Int_Tables_number   1
_chemical_formula_structural   Be2HgTe
_chemical_formula_sum   'Be2 Hg1 Te1'
_cell_volume   76.52037727
_cell_formula_units_Z   1
loop_
 _symmetry_equiv_pos_site_id
 _symmetry_equiv_pos_as_xyz
  1  'x, y, z'
loop_
 _atom_site_type_symbol
 _atom_site_label
 _atom_site_symmetry_multiplicity
 _atom_site_fract_x
 _atom_site_fract_y
 _atom_site_fract_z
 _atom_site_occupancy
  Be  Be0  1  0.00000000  0.00000000  0.86085818  1
  Be  Be1  1  0.49999968  0.49999968  0.32185813  1
  Hg  Hg2  1  0.00000000  0.00000000  0.40672812  1
  Te  Te3  1  0.49999968  0.49999968  0.91055402  1
