# generated using pymatgen
data_ThMn2
_symmetry_space_group_name_H-M   'P 1'
_cell_length_a   4.75883903
_cell_length_b   5.29219355
_cell_length_c   8.84609893
_cell_angle_alpha   90.00000000
_cell_angle_beta   90.00000000
_cell_angle_gamma   116.71862075
_symmetry_Int_Tables_number   1
_chemical_formula_structural   ThMn2
_chemical_formula_sum   'Th4 Mn8'
_cell_volume   198.99838355
_cell_formula_units_Z   4
loop_
 _symmetry_equiv_pos_site_id
 _symmetry_equiv_pos_as_xyz
  1  'x, y, z'
loop_
 _atom_site_type_symbol
 _atom_site_label
 _atom_site_symmetry_multiplicity
 _atom_site_fract_x
 _atom_site_fract_y
 _atom_site_fract_z
 _atom_site_occupancy
  Th  Th0  1  0.66070196  0.32140278  0.06703900  1
  Th  Th1  1  0.33929903  0.67859750  0.56703906  1
  Th  Th2  1  0.33929903  0.67859750  0.93296112  1
  Th  Th3  1  0.66070196  0.32140278  0.43296106  1
  Mn  Mn4  1  0.00000000  0.00000000  0.00000000  1
  Mn  Mn5  1  0.00000000  -0.00000000  0.50000006  1
  Mn  Mn6  1  0.67278986  0.83541996  0.25000003  1
  Mn  Mn7  1  0.16263090  0.83542016  0.25000003  1
  Mn  Mn8  1  0.17395157  0.34790285  0.25000003  1
  Mn  Mn9  1  0.32721113  0.16458031  0.75000009  1
  Mn  Mn10  1  0.83737009  0.16458011  0.75000009  1
  Mn  Mn11  1  0.82604942  0.65209742  0.75000009  1
