# generated using pymatgen
data_La5Zn2Sn
_symmetry_space_group_name_H-M   'P 1'
_cell_length_a   9.07837840
_cell_length_b   9.07837840
_cell_length_c   9.07837840
_cell_angle_alpha   122.99904647
_cell_angle_beta   122.99904647
_cell_angle_gamma   84.87952946
_symmetry_Int_Tables_number   1
_chemical_formula_structural   La5Zn2Sn
_chemical_formula_sum   'La10 Zn4 Sn2'
_cell_volume   502.88972838
_cell_formula_units_Z   2
loop_
 _symmetry_equiv_pos_site_id
 _symmetry_equiv_pos_as_xyz
  1  'x, y, z'
loop_
 _atom_site_type_symbol
 _atom_site_label
 _atom_site_symmetry_multiplicity
 _atom_site_fract_x
 _atom_site_fract_y
 _atom_site_fract_z
 _atom_site_occupancy
  La  La0  1  0.01028352  0.19754184  0.49999952  1
  La  La1  1  0.69754207  0.51028375  0.49999952  1
  La  La2  1  0.51028304  0.01028352  0.81274072  1
  La  La3  1  0.19754255  0.69754207  0.18725832  1
  La  La4  1  0.80245720  0.30245768  0.81274072  1
  La  La5  1  0.48971672  0.98971624  0.18725832  1
  La  La6  1  0.30245768  0.48971600  0.49999952  1
  La  La7  1  0.98971624  0.80245792  0.49999952  1
  La  La8  1  0.00000000  0.00000000  0.00000000  1
  La  La9  1  0.50000023  0.50000023  0.00000000  1
  Zn  Zn10  1  0.63900410  0.86099589  0.49999952  1
  Zn  Zn11  1  0.36099565  0.13900386  0.49999952  1
  Zn  Zn12  1  0.13900386  0.63900338  0.77800725  1
  Zn  Zn13  1  0.86099589  0.36099637  0.22199179  1
  Sn  Sn14  1  0.75000035  0.75000035  0.00000000  1
  Sn  Sn15  1  0.25000012  0.25000012  0.00000000  1
