# generated using pymatgen
data_Pu3Si2
_symmetry_space_group_name_H-M   'P 1'
_cell_length_a   7.43307060
_cell_length_b   7.43307060
_cell_length_c   4.11602264
_cell_angle_alpha   90.00000000
_cell_angle_beta   90.00000000
_cell_angle_gamma   90.00000000
_symmetry_Int_Tables_number   1
_chemical_formula_structural   Pu3Si2
_chemical_formula_sum   'Pu6 Si4'
_cell_volume   227.41246768
_cell_formula_units_Z   2
loop_
 _symmetry_equiv_pos_site_id
 _symmetry_equiv_pos_as_xyz
  1  'x, y, z'
loop_
 _atom_site_type_symbol
 _atom_site_label
 _atom_site_symmetry_multiplicity
 _atom_site_fract_x
 _atom_site_fract_y
 _atom_site_fract_z
 _atom_site_occupancy
  Pu  Pu0  1  0.00000000  0.00000000  0.00000000  1
  Pu  Pu1  1  0.49999996  0.49999996  0.00000000  1
  Pu  Pu2  1  0.17965842  0.67965838  0.49999968  1
  Pu  Pu3  1  0.82034149  0.32034154  0.49999968  1
  Pu  Pu4  1  0.32034154  0.17965842  0.49999968  1
  Pu  Pu5  1  0.67965838  0.82034149  0.49999968  1
  Si  Si6  1  0.61386491  0.11386495  0.00000000  1
  Si  Si7  1  0.38613501  0.88613497  0.00000000  1
  Si  Si8  1  0.88613497  0.61386491  0.00000000  1
  Si  Si9  1  0.11386495  0.38613501  0.00000000  1
