# generated using pymatgen
data_Sr2ScCoPO3
_symmetry_space_group_name_H-M   'P 1'
_cell_length_a   4.04629308
_cell_length_b   4.04629308
_cell_length_c   15.60097244
_cell_angle_alpha   90.00000000
_cell_angle_beta   90.00000000
_cell_angle_gamma   90.00000000
_symmetry_Int_Tables_number   1
_chemical_formula_structural   Sr2ScCoPO3
_chemical_formula_sum   'Sr4 Sc2 Co2 P2 O6'
_cell_volume   255.42672869
_cell_formula_units_Z   2
loop_
 _symmetry_equiv_pos_site_id
 _symmetry_equiv_pos_as_xyz
  1  'x, y, z'
loop_
 _atom_site_type_symbol
 _atom_site_label
 _atom_site_symmetry_multiplicity
 _atom_site_fract_x
 _atom_site_fract_y
 _atom_site_fract_z
 _atom_site_occupancy
  Sr  Sr0  1  0.74999943  0.74999943  0.17765505  1
  Sr  Sr1  1  0.24999981  0.24999981  0.82234479  1
  Sr  Sr2  1  0.74999943  0.74999943  0.41190699  1
  Sr  Sr3  1  0.24999981  0.24999981  0.58809285  1
  Sc  Sc4  1  0.24999981  0.24999981  0.30243927  1
  Sc  Sc5  1  0.74999943  0.74999943  0.69756058  1
  Co  Co6  1  0.24999981  0.74999943  0.00000000  1
  Co  Co7  1  0.74999943  0.24999981  0.00000000  1
  P  P8  1  0.24999981  0.24999981  0.06754121  1
  P  P9  1  0.74999943  0.74999943  0.93245863  1
  O  O10  1  0.74999943  0.24999981  0.27959370  1
  O  O11  1  0.24999981  0.74999943  0.27959370  1
  O  O12  1  0.24999981  0.74999943  0.72040614  1
  O  O13  1  0.74999943  0.24999981  0.72040614  1
  O  O14  1  0.24999981  0.24999981  0.43104428  1
  O  O15  1  0.74999943  0.74999943  0.56895557  1
