# generated using pymatgen
data_Ta2O3
_symmetry_space_group_name_H-M   'P 1'
_cell_length_a   6.12120999
_cell_length_b   6.12120999
_cell_length_c   7.56752183
_cell_angle_alpha   66.65863561
_cell_angle_beta   66.65863561
_cell_angle_gamma   26.76519865
_symmetry_Int_Tables_number   1
_chemical_formula_structural   Ta2O3
_chemical_formula_sum   'Ta4 O6'
_cell_volume   116.62239918
_cell_formula_units_Z   2
loop_
 _symmetry_equiv_pos_site_id
 _symmetry_equiv_pos_as_xyz
  1  'x, y, z'
loop_
 _atom_site_type_symbol
 _atom_site_label
 _atom_site_symmetry_multiplicity
 _atom_site_fract_x
 _atom_site_fract_y
 _atom_site_fract_z
 _atom_site_occupancy
  Ta  Ta0  1  0.83662908  0.83662908  0.84454826  1
  Ta  Ta1  1  0.16337115  0.16337115  0.15545267  1
  Ta  Ta2  1  0.65962193  0.65962193  0.64382705  1
  Ta  Ta3  1  0.34037830  0.34037830  0.35617388  1
  O  O4  1  0.86282605  0.86282605  0.55491689  1
  O  O5  1  0.13717418  0.13717418  0.44508404  1
  O  O6  1  0.81411853  0.81411853  0.15314246  1
  O  O7  1  0.18588170  0.18588170  0.84685847  1
  O  O8  1  0.52638736  0.52638736  0.20612363  1
  O  O9  1  0.47361287  0.47361287  0.79387730  1
