# generated using pymatgen
data_YbGa2Ni
_symmetry_space_group_name_H-M   'P 1'
_cell_length_a   5.18110477
_cell_length_b   5.18110477
_cell_length_c   6.94118579
_cell_angle_alpha   90.00000000
_cell_angle_beta   90.00000000
_cell_angle_gamma   133.75822808
_symmetry_Int_Tables_number   1
_chemical_formula_structural   YbGa2Ni
_chemical_formula_sum   'Yb2 Ga4 Ni2'
_cell_volume   134.57821918
_cell_formula_units_Z   2
loop_
 _symmetry_equiv_pos_site_id
 _symmetry_equiv_pos_as_xyz
  1  'x, y, z'
loop_
 _atom_site_type_symbol
 _atom_site_label
 _atom_site_symmetry_multiplicity
 _atom_site_fract_x
 _atom_site_fract_y
 _atom_site_fract_z
 _atom_site_occupancy
  Yb  Yb0  1  0.43482922  0.56517235  0.75000045  1
  Yb  Yb1  1  0.56517235  0.43482922  0.25000015  1
  Ga  Ga2  1  0.14856387  0.85143771  0.94600738  1
  Ga  Ga3  1  0.85143771  0.14856387  0.44600708  1
  Ga  Ga4  1  0.14856387  0.85143771  0.55399353  1
  Ga  Ga5  1  0.85143771  0.14856387  0.05399323  1
  Ni  Ni6  1  0.71432897  0.28567260  0.75000045  1
  Ni  Ni7  1  0.28567260  0.71432897  0.25000015  1
