# generated using pymatgen
data_BaLiRh2
_symmetry_space_group_name_H-M   'P 1'
_cell_length_a   5.20165883
_cell_length_b   5.20165883
_cell_length_c   5.20165883
_cell_angle_alpha   131.26628955
_cell_angle_beta   131.26628955
_cell_angle_gamma   71.39034091
_symmetry_Int_Tables_number   1
_chemical_formula_structural   BaLiRh2
_chemical_formula_sum   'Ba1 Li1 Rh2'
_cell_volume   77.82582944
_cell_formula_units_Z   1
loop_
 _symmetry_equiv_pos_site_id
 _symmetry_equiv_pos_as_xyz
  1  'x, y, z'
loop_
 _atom_site_type_symbol
 _atom_site_label
 _atom_site_symmetry_multiplicity
 _atom_site_fract_x
 _atom_site_fract_y
 _atom_site_fract_z
 _atom_site_occupancy
  Ba  Ba0  1  0.25000016  0.75000071  0.50000055  1
  Li  Li1  1  0.75000071  0.25000016  0.50000055  1
  Rh  Rh2  1  0.00000000  0.00000000  0.00000000  1
  Rh  Rh3  1  0.50000032  0.50000032  0.00000000  1
