# generated using pymatgen
data_ZrGePt
_symmetry_space_group_name_H-M   'P 1'
_cell_length_a   4.00883181
_cell_length_b   6.71334947
_cell_length_c   7.76114054
_cell_angle_alpha   90.00000000
_cell_angle_beta   90.00000000
_cell_angle_gamma   90.00000000
_symmetry_Int_Tables_number   1
_chemical_formula_structural   ZrGePt
_chemical_formula_sum   'Zr4 Ge4 Pt4'
_cell_volume   208.87316086
_cell_formula_units_Z   4
loop_
 _symmetry_equiv_pos_site_id
 _symmetry_equiv_pos_as_xyz
  1  'x, y, z'
loop_
 _atom_site_type_symbol
 _atom_site_label
 _atom_site_symmetry_multiplicity
 _atom_site_fract_x
 _atom_site_fract_y
 _atom_site_fract_z
 _atom_site_occupancy
  Zr  Zr0  1  0.24999989  0.02875446  0.31601578  1
  Zr  Zr1  1  0.74999966  0.47124558  0.81601574  1
  Zr  Zr2  1  0.74999966  0.97124562  0.68398415  1
  Zr  Zr3  1  0.24999989  0.52875450  0.18398419  1
  Ge  Ge4  1  0.24999989  0.25162082  0.62066153  1
  Ge  Ge5  1  0.74999966  0.24837922  0.12066157  1
  Ge  Ge6  1  0.74999966  0.74837926  0.37933840  1
  Ge  Ge7  1  0.24999989  0.75162086  0.87933837  1
  Pt  Pt8  1  0.24999989  0.14546884  0.93561510  1
  Pt  Pt9  1  0.74999966  0.35453120  0.43561513  1
  Pt  Pt10  1  0.74999966  0.85453124  0.06438483  1
  Pt  Pt11  1  0.24999989  0.64546888  0.56438480  1
