# generated using pymatgen
data_SmMgPd
_symmetry_space_group_name_H-M   'P 1'
_cell_length_a   7.55924089
_cell_length_b   7.55910034
_cell_length_c   4.05424532
_cell_angle_alpha   90.00000000
_cell_angle_beta   90.00000000
_cell_angle_gamma   120.00061504
_symmetry_Int_Tables_number   1
_chemical_formula_structural   SmMgPd
_chemical_formula_sum   'Sm3 Mg3 Pd3'
_cell_volume   200.62555885
_cell_formula_units_Z   3
loop_
 _symmetry_equiv_pos_site_id
 _symmetry_equiv_pos_as_xyz
  1  'x, y, z'
loop_
 _atom_site_type_symbol
 _atom_site_label
 _atom_site_symmetry_multiplicity
 _atom_site_fract_x
 _atom_site_fract_y
 _atom_site_fract_z
 _atom_site_occupancy
  Sm  Sm0  1  0.99999568  0.41373302  0.50000058  1
  Sm  Sm1  1  0.58626307  0.58626719  0.50000058  1
  Sm  Sm2  1  0.41374262  0.00000012  0.50000058  1
  Mg  Mg3  1  0.00000405  0.75812419  0.00000000  1
  Mg  Mg4  1  0.24187943  0.24187563  0.00000000  1
  Mg  Mg5  1  0.75812032  0.00000022  0.00000000  1
  Pd  Pd6  1  0.66666218  0.33333161  0.00000000  1
  Pd  Pd7  1  0.33333091  0.66666843  0.00000000  1
  Pd  Pd8  1  0.00000095  0.00000000  0.50000058  1
