# generated using pymatgen
data_Sc(MnGe)6
_symmetry_space_group_name_H-M   'P 1'
_cell_length_a   5.02641722
_cell_length_b   5.02605073
_cell_length_c   8.03985210
_cell_angle_alpha   90.00000000
_cell_angle_beta   90.00000000
_cell_angle_gamma   120.00241212
_symmetry_Int_Tables_number   1
_chemical_formula_structural   Sc(MnGe)6
_chemical_formula_sum   'Sc1 Mn6 Ge6'
_cell_volume   175.89501709
_cell_formula_units_Z   1
loop_
 _symmetry_equiv_pos_site_id
 _symmetry_equiv_pos_as_xyz
  1  'x, y, z'
loop_
 _atom_site_type_symbol
 _atom_site_label
 _atom_site_symmetry_multiplicity
 _atom_site_fract_x
 _atom_site_fract_y
 _atom_site_fract_z
 _atom_site_occupancy
  Sc  Sc0  1  0.00000000  0.00000000  0.00000000  1
  Mn  Mn1  1  -0.00000001  0.49999959  0.24854321  1
  Mn  Mn2  1  0.49999984  0.50000002  0.24854321  1
  Mn  Mn3  1  0.49999985  0.00000043  0.24855629  1
  Mn  Mn4  1  0.49999984  0.50000002  0.75145653  1
  Mn  Mn5  1  -0.00000001  0.49999959  0.75145653  1
  Mn  Mn6  1  0.49999985  0.00000043  0.75144345  1
  Ge  Ge7  1  0.66666805  0.33333682  0.00000000  1
  Ge  Ge8  1  0.33333162  0.66666322  0.00000000  1
  Ge  Ge9  1  0.66668219  0.33336509  0.49999987  1
  Ge  Ge10  1  0.33331748  0.66663494  0.49999987  1
  Ge  Ge11  1  0.00000000  0.00000000  0.34121346  1
  Ge  Ge12  1  0.00000000  0.00000000  0.65878628  1
