# generated using pymatgen
data_BeHgMo
_symmetry_space_group_name_H-M   'P 1'
_cell_length_a   2.86772497
_cell_length_b   2.86772497
_cell_length_c   6.66201436
_cell_angle_alpha   90.00000000
_cell_angle_beta   90.00000000
_cell_angle_gamma   120.00001302
_symmetry_Int_Tables_number   1
_chemical_formula_structural   BeHgMo
_chemical_formula_sum   'Be1 Hg1 Mo1'
_cell_volume   47.44725974
_cell_formula_units_Z   1
loop_
 _symmetry_equiv_pos_site_id
 _symmetry_equiv_pos_as_xyz
  1  'x, y, z'
loop_
 _atom_site_type_symbol
 _atom_site_label
 _atom_site_symmetry_multiplicity
 _atom_site_fract_x
 _atom_site_fract_y
 _atom_site_fract_z
 _atom_site_occupancy
  Be  Be0  1  0.00000000  0.00000000  0.01238387  1
  Hg  Hg1  1  0.66666604  0.33333242  0.68414218  1
  Mo  Mo2  1  0.33333242  0.66666604  0.30347330  1
