# generated using pymatgen
data_NbAsP2
_symmetry_space_group_name_H-M   'P 1'
_cell_length_a   4.53382998
_cell_length_b   4.53382998
_cell_length_c   4.53382998
_cell_angle_alpha   60.00000000
_cell_angle_beta   60.00000000
_cell_angle_gamma   60.00000000
_symmetry_Int_Tables_number   1
_chemical_formula_structural   NbAsP2
_chemical_formula_sum   'Nb1 As1 P2'
_cell_volume   65.89928334
_cell_formula_units_Z   1
loop_
 _symmetry_equiv_pos_site_id
 _symmetry_equiv_pos_as_xyz
  1  'x, y, z'
loop_
 _atom_site_type_symbol
 _atom_site_label
 _atom_site_symmetry_multiplicity
 _atom_site_fract_x
 _atom_site_fract_y
 _atom_site_fract_z
 _atom_site_occupancy
  Nb  Nb0  1  0.74999955  0.74999955  0.74999955  1
  As  As1  1  0.49999970  0.49999970  0.49999970  1
  P  P2  1  0.00000000  0.00000000  0.00000000  1
  P  P3  1  0.24999985  0.24999985  0.24999985  1
