# generated using pymatgen
data_NaHfBe
_symmetry_space_group_name_H-M   'P 1'
_cell_length_a   2.93355592
_cell_length_b   2.93355592
_cell_length_c   7.86275033
_cell_angle_alpha   90.00000000
_cell_angle_beta   90.00000000
_cell_angle_gamma   120.00001670
_symmetry_Int_Tables_number   1
_chemical_formula_structural   NaHfBe
_chemical_formula_sum   'Na1 Hf1 Be1'
_cell_volume   58.59948337
_cell_formula_units_Z   1
loop_
 _symmetry_equiv_pos_site_id
 _symmetry_equiv_pos_as_xyz
  1  'x, y, z'
loop_
 _atom_site_type_symbol
 _atom_site_label
 _atom_site_symmetry_multiplicity
 _atom_site_fract_x
 _atom_site_fract_y
 _atom_site_fract_z
 _atom_site_occupancy
  Na  Na0  1  0.66666755  0.33333409  0.30965028  1
  Hf  Hf1  1  0.33333409  0.66666755  0.70828533  1
  Be  Be2  1  0.00000000  0.00000000  0.98206431  1
