# generated using pymatgen
data_BeReHg
_symmetry_space_group_name_H-M   'P 1'
_cell_length_a   5.51421105
_cell_length_b   5.51421105
_cell_length_c   5.51421105
_cell_angle_alpha   148.88077960
_cell_angle_beta   148.88077960
_cell_angle_gamma   44.58682208
_symmetry_Int_Tables_number   1
_chemical_formula_structural   BeReHg
_chemical_formula_sum   'Be1 Re1 Hg1'
_cell_volume   44.64989474
_cell_formula_units_Z   1
loop_
 _symmetry_equiv_pos_site_id
 _symmetry_equiv_pos_as_xyz
  1  'x, y, z'
loop_
 _atom_site_type_symbol
 _atom_site_label
 _atom_site_symmetry_multiplicity
 _atom_site_fract_x
 _atom_site_fract_y
 _atom_site_fract_z
 _atom_site_occupancy
  Be  Be0  1  0.02362123  0.02362123  0.00000000  1
  Re  Re1  1  0.63389188  0.63389188  0.00000000  1
  Hg  Hg2  1  0.34248645  0.34248645  0.00000000  1
