# generated using pymatgen
data_Sc4BeW
_symmetry_space_group_name_H-M   'P 1'
_cell_length_a   5.46946571
_cell_length_b   5.46946571
_cell_length_c   5.46946571
_cell_angle_alpha   60.00000000
_cell_angle_beta   60.00000000
_cell_angle_gamma   60.00000000
_symmetry_Int_Tables_number   1
_chemical_formula_structural   Sc4BeW
_chemical_formula_sum   'Sc4 Be1 W1'
_cell_volume   115.69636465
_cell_formula_units_Z   1
loop_
 _symmetry_equiv_pos_site_id
 _symmetry_equiv_pos_as_xyz
  1  'x, y, z'
loop_
 _atom_site_type_symbol
 _atom_site_label
 _atom_site_symmetry_multiplicity
 _atom_site_fract_x
 _atom_site_fract_y
 _atom_site_fract_z
 _atom_site_occupancy
  Sc  Sc0  1  0.12917311  0.62360927  0.62360927  1
  Sc  Sc1  1  0.62360927  0.62360927  0.62360927  1
  Sc  Sc2  1  0.62360927  0.12917311  0.62360927  1
  Sc  Sc3  1  0.62360927  0.62360927  0.12917311  1
  Be  Be4  1  0.00000000  0.00000000  0.00000000  1
  W  W5  1  0.25000024  0.25000024  0.25000024  1
