# generated using pymatgen
data_CuSeO3
_symmetry_space_group_name_H-M   'P 1'
_cell_length_a   5.37158610
_cell_length_b   6.02604845
_cell_length_c   7.29245601
_cell_angle_alpha   90.00000000
_cell_angle_beta   90.00000000
_cell_angle_gamma   90.00000000
_symmetry_Int_Tables_number   1
_chemical_formula_structural   CuSeO3
_chemical_formula_sum   'Cu4 Se4 O12'
_cell_volume   236.05270318
_cell_formula_units_Z   4
loop_
 _symmetry_equiv_pos_site_id
 _symmetry_equiv_pos_as_xyz
  1  'x, y, z'
loop_
 _atom_site_type_symbol
 _atom_site_label
 _atom_site_symmetry_multiplicity
 _atom_site_fract_x
 _atom_site_fract_y
 _atom_site_fract_z
 _atom_site_occupancy
  Cu  Cu0  1  0.50000036  0.00000000  0.00000000  1
  Cu  Cu1  1  0.00000000  0.50000013  0.00000000  1
  Cu  Cu2  1  0.50000036  0.00000000  0.50000027  1
  Cu  Cu3  1  0.00000000  0.50000013  0.50000027  1
  Se  Se4  1  0.49750975  0.46505223  0.25000014  1
  Se  Se5  1  0.99751011  0.03494790  0.75000041  1
  Se  Se6  1  0.00249061  0.96505236  0.25000014  1
  Se  Se7  1  0.50249098  0.53494803  0.75000041  1
  O  O8  1  0.09684675  0.20124448  0.93204241  1
  O  O9  1  0.33450652  0.92992100  0.25000014  1
  O  O10  1  0.90315398  0.79875578  0.43204214  1
  O  O11  1  0.40315361  0.70124460  0.56795841  1
  O  O12  1  0.90315398  0.79875578  0.06795814  1
  O  O13  1  0.40315361  0.70124460  0.93204241  1
  O  O14  1  0.09684675  0.20124448  0.56795841  1
  O  O15  1  0.59684711  0.29875565  0.43204214  1
  O  O16  1  0.16549384  0.42992087  0.25000014  1
  O  O17  1  0.66549420  0.07007926  0.75000041  1
  O  O18  1  0.83450689  0.57007939  0.75000041  1
  O  O19  1  0.59684711  0.29875565  0.06795814  1
