# generated using pymatgen
data_BaNa2Ca
_symmetry_space_group_name_H-M   'P 1'
_cell_length_a   4.42335780
_cell_length_b   4.41996712
_cell_length_c   8.84521448
_cell_angle_alpha   90.00000000
_cell_angle_beta   90.00000000
_cell_angle_gamma   90.00000000
_symmetry_Int_Tables_number   1
_chemical_formula_structural   BaNa2Ca
_chemical_formula_sum   'Ba1 Na2 Ca1'
_cell_volume   172.93363773
_cell_formula_units_Z   1
loop_
 _symmetry_equiv_pos_site_id
 _symmetry_equiv_pos_as_xyz
  1  'x, y, z'
loop_
 _atom_site_type_symbol
 _atom_site_label
 _atom_site_symmetry_multiplicity
 _atom_site_fract_x
 _atom_site_fract_y
 _atom_site_fract_z
 _atom_site_occupancy
  Ba  Ba0  1  0.50000025  0.50000033  0.00000000  1
  Na  Na1  1  0.00000000  0.00000000  0.72395297  1
  Na  Na2  1  0.00000000  0.00000000  0.27604652  1
  Ca  Ca3  1  0.50000025  0.50000033  0.49999975  1
