# generated using pymatgen
data_BeNbW
_symmetry_space_group_name_H-M   'P 1'
_cell_length_a   6.22324023
_cell_length_b   6.22324023
_cell_length_c   6.22324023
_cell_angle_alpha   154.84146602
_cell_angle_beta   154.84146602
_cell_angle_gamma   35.87768830
_symmetry_Int_Tables_number   1
_chemical_formula_structural   BeNbW
_chemical_formula_sum   'Be1 Nb1 W1'
_cell_volume   43.50533907
_cell_formula_units_Z   1
loop_
 _symmetry_equiv_pos_site_id
 _symmetry_equiv_pos_as_xyz
  1  'x, y, z'
loop_
 _atom_site_type_symbol
 _atom_site_label
 _atom_site_symmetry_multiplicity
 _atom_site_fract_x
 _atom_site_fract_y
 _atom_site_fract_z
 _atom_site_occupancy
  Be  Be0  1  0.00372396  0.00372396  0.00000000  1
  Nb  Nb1  1  0.34990701  0.34990701  0.00000000  1
  W  W2  1  0.64636862  0.64636862  0.00000000  1
