# generated using pymatgen
data_La4Sb3
_symmetry_space_group_name_H-M   'P 1'
_cell_length_a   8.40372116
_cell_length_b   8.40372116
_cell_length_c   8.40372116
_cell_angle_alpha   109.47122063
_cell_angle_beta   109.47122063
_cell_angle_gamma   109.47122063
_symmetry_Int_Tables_number   1
_chemical_formula_structural   La4Sb3
_chemical_formula_sum   'La8 Sb6'
_cell_volume   456.87038849
_cell_formula_units_Z   2
loop_
 _symmetry_equiv_pos_site_id
 _symmetry_equiv_pos_as_xyz
  1  'x, y, z'
loop_
 _atom_site_type_symbol
 _atom_site_label
 _atom_site_symmetry_multiplicity
 _atom_site_fract_x
 _atom_site_fract_y
 _atom_site_fract_z
 _atom_site_occupancy
  La  La0  1  0.14229960  0.14229960  0.14229960  1
  La  La1  1  0.49999993  -0.00000000  0.35770033  1
  La  La2  1  0.00000000  0.35770033  0.49999993  1
  La  La3  1  0.35770033  0.49999993  0.00000000  1
  La  La4  1  0.64229953  0.64229953  0.64229953  1
  La  La5  1  0.49999993  0.00000000  0.85770026  1
  La  La6  1  0.85770026  0.49999993  0.00000000  1
  La  La7  1  0.00000000  0.85770026  0.49999993  1
  Sb  Sb8  1  0.24999997  0.62499991  0.37499995  1
  Sb  Sb9  1  0.74999990  0.87499988  0.12499998  1
  Sb  Sb10  1  0.37499995  0.24999997  0.62499991  1
  Sb  Sb11  1  0.12499998  0.74999990  0.87499988  1
  Sb  Sb12  1  0.62499991  0.37499995  0.24999997  1
  Sb  Sb13  1  0.87499988  0.12499998  0.74999990  1
