# generated using pymatgen
data_As2Se3
_symmetry_space_group_name_H-M   'P 1'
_cell_length_a   7.06888943
_cell_length_b   7.06888943
_cell_length_c   9.55733930
_cell_angle_alpha   84.28147709
_cell_angle_beta   84.28147709
_cell_angle_gamma   31.24188563
_symmetry_Int_Tables_number   1
_chemical_formula_structural   As2Se3
_chemical_formula_sum   'As4 Se6'
_cell_volume   246.36476110
_cell_formula_units_Z   2
loop_
 _symmetry_equiv_pos_site_id
 _symmetry_equiv_pos_as_xyz
  1  'x, y, z'
loop_
 _atom_site_type_symbol
 _atom_site_label
 _atom_site_symmetry_multiplicity
 _atom_site_fract_x
 _atom_site_fract_y
 _atom_site_fract_z
 _atom_site_occupancy
  As  As0  1  0.79815556  0.79815556  0.13755501  1
  As  As1  1  0.20184372  0.20184372  0.86244529  1
  As  As2  1  0.38324850  0.38324850  0.43873523  1
  As  As3  1  0.61675078  0.61675078  0.56126507  1
  Se  Se4  1  0.96744166  0.96744166  0.28788896  1
  Se  Se5  1  0.03255762  0.03255762  0.71211134  1
  Se  Se6  1  0.22278715  0.22278715  0.33841589  1
  Se  Se7  1  0.77721213  0.77721213  0.66158441  1
  Se  Se8  1  0.62724642  0.62724642  0.03506433  1
  Se  Se9  1  0.37275287  0.37275287  0.96493597  1
