# generated using pymatgen
data_Dy3Pt4
_symmetry_space_group_name_H-M   'P 1'
_cell_length_a   7.85252408
_cell_length_b   7.85252408
_cell_length_c   7.85252408
_cell_angle_alpha   114.28362161
_cell_angle_beta   114.28362161
_cell_angle_gamma   114.28362161
_symmetry_Int_Tables_number   1
_chemical_formula_structural   Dy3Pt4
_chemical_formula_sum   'Dy6 Pt8'
_cell_volume   287.88750276
_cell_formula_units_Z   2
loop_
 _symmetry_equiv_pos_site_id
 _symmetry_equiv_pos_as_xyz
  1  'x, y, z'
loop_
 _atom_site_type_symbol
 _atom_site_label
 _atom_site_symmetry_multiplicity
 _atom_site_fract_x
 _atom_site_fract_y
 _atom_site_fract_z
 _atom_site_occupancy
  Dy  Dy0  1  0.40514371  0.02650090  0.27860586  1
  Dy  Dy1  1  0.27860579  0.40514406  0.02650049  1
  Dy  Dy2  1  0.02650014  0.27860576  0.40514360  1
  Dy  Dy3  1  0.59485401  0.97349834  0.72139230  1
  Dy  Dy4  1  0.72139193  0.59485518  0.97349767  1
  Dy  Dy5  1  0.97349758  0.72139348  0.59485456  1
  Pt  Pt6  1  0.00000000  0.00000000  0.00000000  1
  Pt  Pt7  1  0.49999886  0.49999962  0.49999908  1
  Pt  Pt8  1  0.22770191  0.06244772  0.55079829  1
  Pt  Pt9  1  0.55079849  0.22770284  0.06244768  1
  Pt  Pt10  1  0.06244728  0.55079840  0.22770208  1
  Pt  Pt11  1  0.77229581  0.93755152  0.44919987  1
  Pt  Pt12  1  0.44919923  0.77229640  0.93755048  1
  Pt  Pt13  1  0.93755044  0.44920084  0.77229608  1
