# generated using pymatgen
data_TaBe2Sb
_symmetry_space_group_name_H-M   'P 1'
_cell_length_a   2.89354599
_cell_length_b   2.89354599
_cell_length_c   8.08557714
_cell_angle_alpha   90.00000000
_cell_angle_beta   90.00000000
_cell_angle_gamma   90.00000000
_symmetry_Int_Tables_number   1
_chemical_formula_structural   TaBe2Sb
_chemical_formula_sum   'Ta1 Be2 Sb1'
_cell_volume   67.69737121
_cell_formula_units_Z   1
loop_
 _symmetry_equiv_pos_site_id
 _symmetry_equiv_pos_as_xyz
  1  'x, y, z'
loop_
 _atom_site_type_symbol
 _atom_site_label
 _atom_site_symmetry_multiplicity
 _atom_site_fract_x
 _atom_site_fract_y
 _atom_site_fract_z
 _atom_site_occupancy
  Ta  Ta0  1  0.50000069  0.50000069  0.50000018  1
  Be  Be1  1  0.00000000  0.00000000  0.70411755  1
  Be  Be2  1  0.00000000  0.00000000  0.29588280  1
  Sb  Sb3  1  0.50000069  0.50000069  0.00000000  1
