# generated using pymatgen
data_ScSiIr
_symmetry_space_group_name_H-M   'P 1'
_cell_length_a   4.07115886
_cell_length_b   6.48531923
_cell_length_c   7.32588519
_cell_angle_alpha   90.00000000
_cell_angle_beta   90.00000000
_cell_angle_gamma   90.00000000
_symmetry_Int_Tables_number   1
_chemical_formula_structural   ScSiIr
_chemical_formula_sum   'Sc4 Si4 Ir4'
_cell_volume   193.42362387
_cell_formula_units_Z   4
loop_
 _symmetry_equiv_pos_site_id
 _symmetry_equiv_pos_as_xyz
  1  'x, y, z'
loop_
 _atom_site_type_symbol
 _atom_site_label
 _atom_site_symmetry_multiplicity
 _atom_site_fract_x
 _atom_site_fract_y
 _atom_site_fract_z
 _atom_site_occupancy
  Sc  Sc0  1  0.25000007  0.01141764  0.31402817  1
  Sc  Sc1  1  0.75000021  0.48858242  0.81402849  1
  Sc  Sc2  1  0.75000021  0.98858248  0.68597249  1
  Sc  Sc3  1  0.25000007  0.51141769  0.18597216  1
  Si  Si4  1  0.25000007  0.28818799  0.61940821  1
  Si  Si5  1  0.75000021  0.21181207  0.11940788  1
  Si  Si6  1  0.75000021  0.71181212  0.38059245  1
  Si  Si7  1  0.25000007  0.78818805  0.88059277  1
  Ir  Ir8  1  0.25000007  0.16210263  0.93814157  1
  Ir  Ir9  1  0.75000021  0.33789743  0.43814124  1
  Ir  Ir10  1  0.75000021  0.83789749  0.06185908  1
  Ir  Ir11  1  0.25000007  0.66210269  0.56185941  1
