# generated using pymatgen
data_TiBe2Pb
_symmetry_space_group_name_H-M   'P 1'
_cell_length_a   3.37394912
_cell_length_b   3.37394912
_cell_length_c   5.70498723
_cell_angle_alpha   90.00000000
_cell_angle_beta   90.00000000
_cell_angle_gamma   90.00000000
_symmetry_Int_Tables_number   1
_chemical_formula_structural   TiBe2Pb
_chemical_formula_sum   'Ti1 Be2 Pb1'
_cell_volume   64.94290855
_cell_formula_units_Z   1
loop_
 _symmetry_equiv_pos_site_id
 _symmetry_equiv_pos_as_xyz
  1  'x, y, z'
loop_
 _atom_site_type_symbol
 _atom_site_label
 _atom_site_symmetry_multiplicity
 _atom_site_fract_x
 _atom_site_fract_y
 _atom_site_fract_z
 _atom_site_occupancy
  Ti  Ti0  1  0.50000013  0.50000013  0.50000024  1
  Be  Be1  1  0.00000000  0.00000000  0.67897347  1
  Be  Be2  1  0.00000000  0.00000000  0.32102701  1
  Pb  Pb3  1  0.50000013  0.50000013  0.00000000  1
