# generated using pymatgen
data_LiV2O5
_symmetry_space_group_name_H-M   'P 1'
_cell_length_a   3.57183473
_cell_length_b   4.57073782
_cell_length_c   11.34199339
_cell_angle_alpha   90.00000000
_cell_angle_beta   90.00000000
_cell_angle_gamma   90.00000000
_symmetry_Int_Tables_number   1
_chemical_formula_structural   LiV2O5
_chemical_formula_sum   'Li2 V4 O10'
_cell_volume   185.16847783
_cell_formula_units_Z   2
loop_
 _symmetry_equiv_pos_site_id
 _symmetry_equiv_pos_as_xyz
  1  'x, y, z'
loop_
 _atom_site_type_symbol
 _atom_site_label
 _atom_site_symmetry_multiplicity
 _atom_site_fract_x
 _atom_site_fract_y
 _atom_site_fract_z
 _atom_site_occupancy
  Li  Li0  1  0.24999967  0.72440894  0.24999993  1
  Li  Li1  1  0.74999901  0.27559154  0.74999978  1
  V  V2  1  0.74999901  0.11816493  0.40192520  1
  V  V3  1  0.74999901  0.11816493  0.09807465  1
  V  V4  1  0.24999967  0.88183555  0.59807450  1
  V  V5  1  0.24999967  0.88183555  0.90192505  1
  O  O6  1  0.74999901  0.47244850  0.11633504  1
  O  O7  1  0.74999901  0.47244850  0.38366481  1
  O  O8  1  0.24999967  0.52755198  0.88366466  1
  O  O9  1  0.24999967  0.52755198  0.61633489  1
  O  O10  1  0.74999901  0.01346699  0.57501669  1
  O  O11  1  0.74999901  0.01346699  0.92498286  1
  O  O12  1  0.24999967  0.98653348  0.42498301  1
  O  O13  1  0.24999967  0.98653348  0.07501684  1
  O  O14  1  0.74999901  0.98475265  0.24999993  1
  O  O15  1  0.24999967  0.01524783  0.74999978  1
