# generated using pymatgen
data_Ba4BeOs
_symmetry_space_group_name_H-M   'P 1'
_cell_length_a   6.67647114
_cell_length_b   6.67647114
_cell_length_c   6.67647114
_cell_angle_alpha   60.00000000
_cell_angle_beta   60.00000000
_cell_angle_gamma   60.00000000
_symmetry_Int_Tables_number   1
_chemical_formula_structural   Ba4BeOs
_chemical_formula_sum   'Ba4 Be1 Os1'
_cell_volume   210.43885541
_cell_formula_units_Z   1
loop_
 _symmetry_equiv_pos_site_id
 _symmetry_equiv_pos_as_xyz
  1  'x, y, z'
loop_
 _atom_site_type_symbol
 _atom_site_label
 _atom_site_symmetry_multiplicity
 _atom_site_fract_x
 _atom_site_fract_y
 _atom_site_fract_z
 _atom_site_occupancy
  Ba  Ba0  1  0.12280548  0.62573179  0.62573179  1
  Ba  Ba1  1  0.62573179  0.62573179  0.62573179  1
  Ba  Ba2  1  0.62573179  0.12280548  0.62573179  1
  Ba  Ba3  1  0.62573179  0.62573179  0.12280548  1
  Be  Be4  1  0.25000010  0.25000010  0.25000010  1
  Os  Os5  1  0.00000000  0.00000000  0.00000000  1
