# generated using pymatgen
data_SiRh2
_symmetry_space_group_name_H-M   'P 1'
_cell_length_a   3.96493079
_cell_length_b   5.52040478
_cell_length_c   7.40908703
_cell_angle_alpha   90.00000000
_cell_angle_beta   90.00000000
_cell_angle_gamma   90.00000000
_symmetry_Int_Tables_number   1
_chemical_formula_structural   SiRh2
_chemical_formula_sum   'Si4 Rh8'
_cell_volume   162.17026657
_cell_formula_units_Z   4
loop_
 _symmetry_equiv_pos_site_id
 _symmetry_equiv_pos_as_xyz
  1  'x, y, z'
loop_
 _atom_site_type_symbol
 _atom_site_label
 _atom_site_symmetry_multiplicity
 _atom_site_fract_x
 _atom_site_fract_y
 _atom_site_fract_z
 _atom_site_occupancy
  Si  Si0  1  0.24999995  0.27606664  0.89492835  1
  Si  Si1  1  0.74999985  0.22393293  0.39492815  1
  Si  Si2  1  0.74999985  0.72393249  0.10507205  1
  Si  Si3  1  0.24999995  0.77606621  0.60507225  1
  Rh  Rh4  1  0.24999995  0.84256507  0.92861779  1
  Rh  Rh5  1  0.74999985  0.65743364  0.42861759  1
  Rh  Rh6  1  0.74999985  0.15743407  0.07138261  1
  Rh  Rh7  1  0.24999995  0.34256550  0.57138281  1
  Rh  Rh8  1  0.24999995  0.97541144  0.30523107  1
  Rh  Rh9  1  0.74999985  0.52458726  0.80523127  1
  Rh  Rh10  1  0.74999985  0.02458769  0.69476933  1
  Rh  Rh11  1  0.24999995  0.47541187  0.19476913  1
