# generated using pymatgen
data_Be2InGa
_symmetry_space_group_name_H-M   'P 1'
_cell_length_a   3.27405501
_cell_length_b   3.27405501
_cell_length_c   5.79533194
_cell_angle_alpha   90.00000000
_cell_angle_beta   90.00000000
_cell_angle_gamma   90.00000000
_symmetry_Int_Tables_number   1
_chemical_formula_structural   Be2InGa
_chemical_formula_sum   'Be2 In1 Ga1'
_cell_volume   62.12269093
_cell_formula_units_Z   1
loop_
 _symmetry_equiv_pos_site_id
 _symmetry_equiv_pos_as_xyz
  1  'x, y, z'
loop_
 _atom_site_type_symbol
 _atom_site_label
 _atom_site_symmetry_multiplicity
 _atom_site_fract_x
 _atom_site_fract_y
 _atom_site_fract_z
 _atom_site_occupancy
  Be  Be0  1  0.00000000  0.00000000  0.81225454  1
  Be  Be1  1  0.00000000  0.00000000  0.18774513  1
  In  In2  1  0.50000076  0.50000076  0.49999983  1
  Ga  Ga3  1  0.50000076  0.50000076  0.00000000  1
