# generated using pymatgen
data_BeZn2Bi
_symmetry_space_group_name_H-M   'P 1'
_cell_length_a   3.29591411
_cell_length_b   3.29591411
_cell_length_c   6.91242856
_cell_angle_alpha   90.00000000
_cell_angle_beta   90.00000000
_cell_angle_gamma   90.00000000
_symmetry_Int_Tables_number   1
_chemical_formula_structural   BeZn2Bi
_chemical_formula_sum   'Be1 Zn2 Bi1'
_cell_volume   75.09005577
_cell_formula_units_Z   1
loop_
 _symmetry_equiv_pos_site_id
 _symmetry_equiv_pos_as_xyz
  1  'x, y, z'
loop_
 _atom_site_type_symbol
 _atom_site_label
 _atom_site_symmetry_multiplicity
 _atom_site_fract_x
 _atom_site_fract_y
 _atom_site_fract_z
 _atom_site_occupancy
  Be  Be0  1  0.00000000  -0.00000000  0.41028964  1
  Zn  Zn1  1  0.00000000  -0.00000000  0.06482373  1
  Zn  Zn2  1  0.49999938  0.49999938  0.28834822  1
  Bi  Bi3  1  0.49999938  0.49999938  0.73653973  1
