# generated using pymatgen
data_AgBiS2
_symmetry_space_group_name_H-M   'P 1'
_cell_length_a   4.04714697
_cell_length_b   4.04719688
_cell_length_c   19.00433373
_cell_angle_alpha   89.99856631
_cell_angle_beta   89.99998203
_cell_angle_gamma   119.99978138
_symmetry_Int_Tables_number   1
_chemical_formula_structural   AgBiS2
_chemical_formula_sum   'Ag3 Bi3 S6'
_cell_volume   269.57992245
_cell_formula_units_Z   3
loop_
 _symmetry_equiv_pos_site_id
 _symmetry_equiv_pos_as_xyz
  1  'x, y, z'
loop_
 _atom_site_type_symbol
 _atom_site_label
 _atom_site_symmetry_multiplicity
 _atom_site_fract_x
 _atom_site_fract_y
 _atom_site_fract_z
 _atom_site_occupancy
  Ag  Ag0  1  0.00000000  0.00000000  0.00000000  1
  Ag  Ag1  1  0.66667123  0.33333854  0.66668229  1
  Ag  Ag2  1  0.33333236  0.66666168  0.33331740  1
  Bi  Bi3  1  0.00000059  0.00000015  0.49999990  1
  Bi  Bi4  1  0.66666406  0.33332518  0.16666357  1
  Bi  Bi5  1  0.33333952  0.66667503  0.83333612  1
  S  S6  1  0.99999487  0.99998424  0.25351357  1
  S  S7  1  0.00000872  0.00001597  0.74648613  1
  S  S8  1  0.66667733  0.33335036  0.92018247  1
  S  S9  1  0.33332625  0.66664986  0.07981723  1
  S  S10  1  0.66666822  0.33333319  0.41314643  1
  S  S11  1  0.33333537  0.66666702  0.58685327  1
