# generated using pymatgen
data_NaBe2Se
_symmetry_space_group_name_H-M   'P 1'
_cell_length_a   3.55551471
_cell_length_b   3.55551471
_cell_length_c   5.23788789
_cell_angle_alpha   90.00000000
_cell_angle_beta   90.00000000
_cell_angle_gamma   90.00000000
_symmetry_Int_Tables_number   1
_chemical_formula_structural   NaBe2Se
_chemical_formula_sum   'Na1 Be2 Se1'
_cell_volume   66.21572779
_cell_formula_units_Z   1
loop_
 _symmetry_equiv_pos_site_id
 _symmetry_equiv_pos_as_xyz
  1  'x, y, z'
loop_
 _atom_site_type_symbol
 _atom_site_label
 _atom_site_symmetry_multiplicity
 _atom_site_fract_x
 _atom_site_fract_y
 _atom_site_fract_z
 _atom_site_occupancy
  Na  Na0  1  0.49999934  0.49999934  0.50000020  1
  Be  Be1  1  0.00000000  0.00000000  0.20734780  1
  Be  Be2  1  0.00000000  0.00000000  0.79265261  1
  Se  Se3  1  0.49999934  0.49999934  0.00000000  1
