# generated using pymatgen
data_LiNiAsO4
_symmetry_space_group_name_H-M   'P 1'
_cell_length_a   4.89763990
_cell_length_b   5.92065717
_cell_length_c   10.32701057
_cell_angle_alpha   90.00000000
_cell_angle_beta   90.00000000
_cell_angle_gamma   90.00000000
_symmetry_Int_Tables_number   1
_chemical_formula_structural   LiNiAsO4
_chemical_formula_sum   'Li4 Ni4 As4 O16'
_cell_volume   299.45487396
_cell_formula_units_Z   4
loop_
 _symmetry_equiv_pos_site_id
 _symmetry_equiv_pos_as_xyz
  1  'x, y, z'
loop_
 _atom_site_type_symbol
 _atom_site_label
 _atom_site_symmetry_multiplicity
 _atom_site_fract_x
 _atom_site_fract_y
 _atom_site_fract_z
 _atom_site_occupancy
  Li  Li0  1  0.00000000  0.00000000  0.00000000  1
  Li  Li1  1  0.50000001  0.00000000  0.49999997  1
  Li  Li2  1  0.00000000  0.50000024  0.00000000  1
  Li  Li3  1  0.50000001  0.50000024  0.49999997  1
  Ni  Ni4  1  0.99366025  0.75000036  0.72923932  1
  Ni  Ni5  1  0.49366024  0.25000012  0.77076060  1
  Ni  Ni6  1  0.00633977  0.25000012  0.27076062  1
  Ni  Ni7  1  0.50633978  0.75000036  0.22923935  1
  As  As8  1  0.06221886  0.75000036  0.40657784  1
  As  As9  1  0.56221887  0.25000012  0.09342213  1
  As  As10  1  0.93778116  0.25000012  0.59342211  1
  As  As11  1  0.43778115  0.75000036  0.90657781  1
  O  O12  1  0.22838271  0.97561930  0.33068344  1
  O  O13  1  0.72838272  0.02438118  0.16931653  1
  O  O14  1  0.22838271  0.52438142  0.33068344  1
  O  O15  1  0.72838272  0.47561906  0.16931653  1
  O  O16  1  0.77161731  0.02438118  0.66931650  1
  O  O17  1  0.27161730  0.97561930  0.83068341  1
  O  O18  1  0.29287016  0.75000036  0.05938211  1
  O  O19  1  0.28672003  0.25000012  0.59432404  1
  O  O20  1  0.70712986  0.25000012  0.94061784  1
  O  O21  1  0.20712985  0.75000036  0.55938208  1
  O  O22  1  0.71327999  0.75000036  0.40567590  1
  O  O23  1  0.21327998  0.25000012  0.09432407  1
  O  O24  1  0.27161730  0.52438142  0.83068341  1
  O  O25  1  0.78672004  0.75000036  0.90567587  1
  O  O26  1  0.79287017  0.25000012  0.44061787  1
  O  O27  1  0.77161731  0.47561906  0.66931650  1
