# generated using pymatgen
data_LaZnNi
_symmetry_space_group_name_H-M   'P 1'
_cell_length_a   7.27162229
_cell_length_b   7.27152459
_cell_length_c   3.91810934
_cell_angle_alpha   90.00000000
_cell_angle_beta   90.00000000
_cell_angle_gamma   120.00044446
_symmetry_Int_Tables_number   1
_chemical_formula_structural   LaZnNi
_chemical_formula_sum   'La3 Zn3 Ni3'
_cell_volume   179.41635403
_cell_formula_units_Z   3
loop_
 _symmetry_equiv_pos_site_id
 _symmetry_equiv_pos_as_xyz
  1  'x, y, z'
loop_
 _atom_site_type_symbol
 _atom_site_label
 _atom_site_symmetry_multiplicity
 _atom_site_fract_x
 _atom_site_fract_y
 _atom_site_fract_z
 _atom_site_occupancy
  La  La0  1  0.00000041  0.41559287  0.50000008  1
  La  La1  1  0.58440712  0.58440629  0.50000008  1
  La  La2  1  0.41559232  -0.00000008  0.50000008  1
  Zn  Zn3  1  0.99999805  0.77023744  0.00000000  1
  Zn  Zn4  1  0.22976008  0.22976160  0.00000000  1
  Zn  Zn5  1  0.77023579  -0.00000014  0.00000000  1
  Ni  Ni6  1  0.66667074  0.33333621  0.00000000  1
  Ni  Ni7  1  0.33333413  0.66666287  0.00000000  1
  Ni  Ni8  1  0.00000020  -0.00000000  0.50000008  1
