# generated using pymatgen
data_CuF2
_symmetry_space_group_name_H-M   'P 1'
_cell_length_a   4.64605220
_cell_length_b   3.17302129
_cell_length_c   4.64141898
_cell_angle_alpha   89.37247203
_cell_angle_beta   90.00000000
_cell_angle_gamma   90.00000000
_symmetry_Int_Tables_number   1
_chemical_formula_structural   CuF2
_chemical_formula_sum   'Cu2 F4'
_cell_volume   68.41979935
_cell_formula_units_Z   2
loop_
 _symmetry_equiv_pos_site_id
 _symmetry_equiv_pos_as_xyz
  1  'x, y, z'
loop_
 _atom_site_type_symbol
 _atom_site_label
 _atom_site_symmetry_multiplicity
 _atom_site_fract_x
 _atom_site_fract_y
 _atom_site_fract_z
 _atom_site_occupancy
  Cu  Cu0  1  0.00000000  0.00000000  0.00000000  1
  Cu  Cu1  1  0.49999976  0.49999995  0.50000035  1
  F  F2  1  0.69706417  0.00078509  0.69863591  1
  F  F3  1  0.19706441  0.49921338  0.80136413  1
  F  F4  1  0.30293535  -0.00078657  0.30136378  1
  F  F5  1  0.80293512  0.50078652  0.19863657  1
