# generated using pymatgen
data_VO2
_symmetry_space_group_name_H-M   'P 1'
_cell_length_a   4.57477880
_cell_length_b   5.38711991
_cell_length_c   5.38713457
_cell_angle_alpha   63.75191989
_cell_angle_beta   90.00000000
_cell_angle_gamma   90.00000000
_symmetry_Int_Tables_number   1
_chemical_formula_structural   VO2
_chemical_formula_sum   'V4 O8'
_cell_volume   119.07554227
_cell_formula_units_Z   4
loop_
 _symmetry_equiv_pos_site_id
 _symmetry_equiv_pos_as_xyz
  1  'x, y, z'
loop_
 _atom_site_type_symbol
 _atom_site_label
 _atom_site_symmetry_multiplicity
 _atom_site_fract_x
 _atom_site_fract_y
 _atom_site_fract_z
 _atom_site_occupancy
  V  V0  1  0.00003418  0.75002455  0.24983892  1
  V  V1  1  0.50003431  0.24997558  0.25015991  1
  V  V2  1  -0.00003418  0.24997539  0.75015974  1
  V  V3  1  0.49996595  0.75002436  0.74983875  1
  O  O4  1  0.79946844  0.89973472  0.89969650  1
  O  O5  1  0.29946831  0.10026503  0.60030199  1
  O  O6  1  0.20053182  0.10026522  0.10030216  1
  O  O7  1  0.70053195  0.89973491  0.39969667  1
  O  O8  1  0.29949984  0.60024008  0.10020170  1
  O  O9  1  0.79949997  0.39976004  0.39979713  1
  O  O10  1  0.70050042  0.39975986  0.89979696  1
  O  O11  1  0.20050029  0.60023989  0.60020153  1
