# generated using pymatgen
data_HoNiP
_symmetry_space_group_name_H-M   'P 1'
_cell_length_a   3.89801027
_cell_length_b   3.89811865
_cell_length_c   15.17977037
_cell_angle_alpha   90.00000000
_cell_angle_beta   90.00000000
_cell_angle_gamma   119.99908026
_symmetry_Int_Tables_number   1
_chemical_formula_structural   HoNiP
_chemical_formula_sum   'Ho4 Ni4 P4'
_cell_volume   199.75510713
_cell_formula_units_Z   4
loop_
 _symmetry_equiv_pos_site_id
 _symmetry_equiv_pos_as_xyz
  1  'x, y, z'
loop_
 _atom_site_type_symbol
 _atom_site_label
 _atom_site_symmetry_multiplicity
 _atom_site_fract_x
 _atom_site_fract_y
 _atom_site_fract_z
 _atom_site_occupancy
  Ho  Ho0  1  0.00000000  0.00000000  0.00000000  1
  Ho  Ho1  1  0.00000000  0.00000000  0.49999999  1
  Ho  Ho2  1  -0.00000114  -0.00000227  0.24999999  1
  Ho  Ho3  1  0.00000114  0.00000227  0.74999998  1
  Ni  Ni4  1  0.66667125  0.33334097  0.12944642  1
  Ni  Ni5  1  0.33332948  0.66665899  0.62944641  1
  Ni  Ni6  1  0.33332948  0.66665899  0.87055356  1
  Ni  Ni7  1  0.66667125  0.33334097  0.37055357  1
  P  P8  1  0.66667228  0.33334304  0.62224275  1
  P  P9  1  0.33332845  0.66665693  0.12224276  1
  P  P10  1  0.33332845  0.66665693  0.37775723  1
  P  P11  1  0.66667228  0.33334304  0.87775722  1
