# generated using pymatgen
data_LiBe2Ge
_symmetry_space_group_name_H-M   'P 1'
_cell_length_a   4.32746569
_cell_length_b   4.32746569
_cell_length_c   4.32746569
_cell_angle_alpha   130.03117092
_cell_angle_beta   130.03117092
_cell_angle_gamma   73.35693784
_symmetry_Int_Tables_number   1
_chemical_formula_structural   LiBe2Ge
_chemical_formula_sum   'Li1 Be2 Ge1'
_cell_volume   46.37938698
_cell_formula_units_Z   1
loop_
 _symmetry_equiv_pos_site_id
 _symmetry_equiv_pos_as_xyz
  1  'x, y, z'
loop_
 _atom_site_type_symbol
 _atom_site_label
 _atom_site_symmetry_multiplicity
 _atom_site_fract_x
 _atom_site_fract_y
 _atom_site_fract_z
 _atom_site_occupancy
  Li  Li0  1  0.75000037  0.25000013  0.50000025  1
  Be  Be1  1  0.00000000  0.00000000  0.00000000  1
  Be  Be2  1  0.50000026  0.50000026  0.00000000  1
  Ge  Ge3  1  0.25000013  0.75000037  0.50000025  1
