# generated using pymatgen
data_BN
_symmetry_space_group_name_H-M   'P 1'
_cell_length_a   2.51228119
_cell_length_b   2.51228032
_cell_length_c   6.58344447
_cell_angle_alpha   90.00000000
_cell_angle_beta   90.00000000
_cell_angle_gamma   120.00001964
_symmetry_Int_Tables_number   1
_chemical_formula_structural   BN
_chemical_formula_sum   'B2 N2'
_cell_volume   35.98488047
_cell_formula_units_Z   2
loop_
 _symmetry_equiv_pos_site_id
 _symmetry_equiv_pos_as_xyz
  1  'x, y, z'
loop_
 _atom_site_type_symbol
 _atom_site_label
 _atom_site_symmetry_multiplicity
 _atom_site_fract_x
 _atom_site_fract_y
 _atom_site_fract_z
 _atom_site_occupancy
  B  B0  1  0.66664678  0.33329250  0.24999983  1
  B  B1  1  0.33335320  0.66670752  0.74999949  1
  N  N2  1  0.66668774  0.33337543  0.74999949  1
  N  N3  1  0.33331223  0.66662459  0.24999983  1
