# generated using pymatgen
data_BeIn4Pb
_symmetry_space_group_name_H-M   'P 1'
_cell_length_a   6.17496071
_cell_length_b   6.17496071
_cell_length_c   6.17496071
_cell_angle_alpha   60.00000000
_cell_angle_beta   60.00000000
_cell_angle_gamma   60.00000000
_symmetry_Int_Tables_number   1
_chemical_formula_structural   BeIn4Pb
_chemical_formula_sum   'Be1 In4 Pb1'
_cell_volume   166.48978744
_cell_formula_units_Z   1
loop_
 _symmetry_equiv_pos_site_id
 _symmetry_equiv_pos_as_xyz
  1  'x, y, z'
loop_
 _atom_site_type_symbol
 _atom_site_label
 _atom_site_symmetry_multiplicity
 _atom_site_fract_x
 _atom_site_fract_y
 _atom_site_fract_z
 _atom_site_occupancy
  Be  Be0  1  0.00000000  0.00000000  0.00000000  1
  In  In1  1  0.12386614  0.62537814  0.62537814  1
  In  In2  1  0.62537814  0.62537814  0.62537814  1
  In  In3  1  0.62537814  0.12386614  0.62537814  1
  In  In4  1  0.62537814  0.62537814  0.12386614  1
  Pb  Pb5  1  0.25000019  0.25000019  0.25000019  1
