# generated using pymatgen
data_NdCu2
_symmetry_space_group_name_H-M   'P 1'
_cell_length_a   5.66109429
_cell_length_b   5.66109429
_cell_length_c   5.66109429
_cell_angle_alpha   135.63413077
_cell_angle_beta   98.20550989
_cell_angle_gamma   98.18596901
_symmetry_Int_Tables_number   1
_chemical_formula_structural   NdCu2
_chemical_formula_sum   'Nd2 Cu4'
_cell_volume   117.47054607
_cell_formula_units_Z   2
loop_
 _symmetry_equiv_pos_site_id
 _symmetry_equiv_pos_as_xyz
  1  'x, y, z'
loop_
 _atom_site_type_symbol
 _atom_site_label
 _atom_site_symmetry_multiplicity
 _atom_site_fract_x
 _atom_site_fract_y
 _atom_site_fract_z
 _atom_site_occupancy
  Nd  Nd0  1  0.74997326  0.49997351  0.24999975  1
  Nd  Nd1  1  0.25002578  0.50002578  0.74999950  1
  Cu  Cu2  1  0.83345025  0.83341659  0.00003366  1
  Cu  Cu3  1  0.33338339  0.83341679  0.49996609  1
  Cu  Cu4  1  0.66661565  0.16658250  0.50003315  1
  Cu  Cu5  1  0.16654884  0.16658250  -0.00003366  1
