# generated using pymatgen
data_BaNa2Tl
_symmetry_space_group_name_H-M   'P 1'
_cell_length_a   4.14931822
_cell_length_b   4.14931822
_cell_length_c   8.62649412
_cell_angle_alpha   90.00000000
_cell_angle_beta   90.00000000
_cell_angle_gamma   90.00000000
_symmetry_Int_Tables_number   1
_chemical_formula_structural   BaNa2Tl
_chemical_formula_sum   'Ba1 Na2 Tl1'
_cell_volume   148.52098388
_cell_formula_units_Z   1
loop_
 _symmetry_equiv_pos_site_id
 _symmetry_equiv_pos_as_xyz
  1  'x, y, z'
loop_
 _atom_site_type_symbol
 _atom_site_label
 _atom_site_symmetry_multiplicity
 _atom_site_fract_x
 _atom_site_fract_y
 _atom_site_fract_z
 _atom_site_occupancy
  Ba  Ba0  1  0.50000021  0.50000021  0.70878575  1
  Na  Na1  1  0.00000000  0.00000000  0.05076252  1
  Na  Na2  1  0.50000021  0.50000021  0.27642273  1
  Tl  Tl3  1  0.00000000  0.00000000  0.46402829  1
