# generated using pymatgen
data_Hg(CO2)2
_symmetry_space_group_name_H-M   'P 1'
_cell_length_a   5.31074472
_cell_length_b   5.10531764
_cell_length_c   6.39356764
_cell_angle_alpha   71.59148523
_cell_angle_beta   90.00000000
_cell_angle_gamma   90.00000000
_symmetry_Int_Tables_number   1
_chemical_formula_structural   Hg(CO2)2
_chemical_formula_sum   'Hg2 C4 O8'
_cell_volume   164.47861882
_cell_formula_units_Z   2
loop_
 _symmetry_equiv_pos_site_id
 _symmetry_equiv_pos_as_xyz
  1  'x, y, z'
loop_
 _atom_site_type_symbol
 _atom_site_label
 _atom_site_symmetry_multiplicity
 _atom_site_fract_x
 _atom_site_fract_y
 _atom_site_fract_z
 _atom_site_occupancy
  Hg  Hg0  1  0.25029117  0.49998468  0.24999199  1
  Hg  Hg1  1  0.75029073  0.50001468  0.75000796  1
  C  C2  1  0.87841403  0.94862264  0.21838237  1
  C  C3  1  0.37841447  0.05137672  0.78161759  1
  C  C4  1  0.62215212  0.05134941  0.28159175  1
  C  C5  1  0.12215257  0.94864995  0.71840820  1
  O  O6  1  0.02094330  0.10874202  0.08298451  1
  O  O7  1  0.52094285  0.89125734  0.91701545  1
  O  O8  1  0.91753638  0.68935484  0.32110541  1
  O  O9  1  0.41753683  0.31064452  0.67889455  1
  O  O10  1  0.58301079  0.31060469  0.17882624  1
  O  O11  1  0.08301124  0.68939467  0.82117372  1
  O  O12  1  0.47964887  0.89125982  0.41703438  1
  O  O13  1  0.97964842  0.10873954  0.58296557  1
