# generated using pymatgen
data_LaTlCd
_symmetry_space_group_name_H-M   'P 1'
_cell_length_a   5.09526514
_cell_length_b   5.09526514
_cell_length_c   7.54290894
_cell_angle_alpha   90.00000000
_cell_angle_beta   90.00000000
_cell_angle_gamma   120.00139878
_symmetry_Int_Tables_number   1
_chemical_formula_structural   LaTlCd
_chemical_formula_sum   'La2 Tl2 Cd2'
_cell_volume   169.58871595
_cell_formula_units_Z   2
loop_
 _symmetry_equiv_pos_site_id
 _symmetry_equiv_pos_as_xyz
  1  'x, y, z'
loop_
 _atom_site_type_symbol
 _atom_site_label
 _atom_site_symmetry_multiplicity
 _atom_site_fract_x
 _atom_site_fract_y
 _atom_site_fract_z
 _atom_site_occupancy
  La  La0  1  0.00000000  0.00000000  0.00000000  1
  La  La1  1  0.00000000  0.00000000  0.50000007  1
  Tl  Tl2  1  0.33333357  0.66666694  0.75000011  1
  Tl  Tl3  1  0.66666694  0.33333357  0.25000004  1
  Cd  Cd4  1  0.33333139  0.66666912  0.25000004  1
  Cd  Cd5  1  0.66666912  0.33333139  0.75000011  1
