# generated using pymatgen
data_Ga3Pd5
_symmetry_space_group_name_H-M   'P 1'
_cell_length_a   4.03096427
_cell_length_b   5.55439405
_cell_length_c   10.72333366
_cell_angle_alpha   90.00000000
_cell_angle_beta   90.00000000
_cell_angle_gamma   90.00000000
_symmetry_Int_Tables_number   1
_chemical_formula_structural   Ga3Pd5
_chemical_formula_sum   'Ga6 Pd10'
_cell_volume   240.09076441
_cell_formula_units_Z   2
loop_
 _symmetry_equiv_pos_site_id
 _symmetry_equiv_pos_as_xyz
  1  'x, y, z'
loop_
 _atom_site_type_symbol
 _atom_site_label
 _atom_site_symmetry_multiplicity
 _atom_site_fract_x
 _atom_site_fract_y
 _atom_site_fract_z
 _atom_site_occupancy
  Ga  Ga0  1  0.00000000  0.00000000  0.00000000  1
  Ga  Ga1  1  0.00000000  0.49999964  0.49999983  1
  Ga  Ga2  1  0.49999947  0.64922521  0.14745035  1
  Ga  Ga3  1  0.49999947  0.35077406  0.85254931  1
  Ga  Ga4  1  0.49999947  0.14922558  0.35254948  1
  Ga  Ga5  1  0.49999947  0.85077369  0.64745018  1
  Pd  Pd6  1  0.00000000  0.49999964  0.00000000  1
  Pd  Pd7  1  0.00000000  0.00000000  0.49999983  1
  Pd  Pd8  1  0.00000000  0.90610191  0.23116868  1
  Pd  Pd9  1  0.00000000  0.09389736  0.76883098  1
  Pd  Pd10  1  0.00000000  0.40610227  0.26883115  1
  Pd  Pd11  1  0.00000000  0.59389700  0.73116851  1
  Pd  Pd12  1  0.49999947  0.69080589  0.39586851  1
  Pd  Pd13  1  0.49999947  0.30919338  0.60413115  1
  Pd  Pd14  1  0.49999947  0.19080626  0.10413132  1
  Pd  Pd15  1  0.49999947  0.80919301  0.89586834  1
