# generated using pymatgen
data_ScFe2
_symmetry_space_group_name_H-M   'P 1'
_cell_length_a   4.78488705
_cell_length_b   4.78488705
_cell_length_c   8.00925299
_cell_angle_alpha   90.00000000
_cell_angle_beta   90.00000000
_cell_angle_gamma   120.00158974
_symmetry_Int_Tables_number   1
_chemical_formula_structural   ScFe2
_chemical_formula_sum   'Sc4 Fe8'
_cell_volume   158.80313347
_cell_formula_units_Z   4
loop_
 _symmetry_equiv_pos_site_id
 _symmetry_equiv_pos_as_xyz
  1  'x, y, z'
loop_
 _atom_site_type_symbol
 _atom_site_label
 _atom_site_symmetry_multiplicity
 _atom_site_fract_x
 _atom_site_fract_y
 _atom_site_fract_z
 _atom_site_occupancy
  Sc  Sc0  1  0.33332885  0.66667281  0.06556107  1
  Sc  Sc1  1  0.66667281  0.33332885  0.56556089  1
  Sc  Sc2  1  0.66667281  0.33332885  0.93443855  1
  Sc  Sc3  1  0.33332885  0.66667281  0.43443874  1
  Fe  Fe4  1  0.00000000  0.00000000  0.00000000  1
  Fe  Fe5  1  0.00000000  0.00000000  0.49999981  1
  Fe  Fe6  1  0.82882351  0.65766365  0.24999991  1
  Fe  Fe7  1  0.34233801  0.17117814  0.24999991  1
  Fe  Fe8  1  0.82886861  0.17113305  0.24999991  1
  Fe  Fe9  1  0.17117814  0.34233801  0.74999972  1
  Fe  Fe10  1  0.65766365  0.82882351  0.74999972  1
  Fe  Fe11  1  0.17113305  0.82886861  0.74999972  1
