# generated using pymatgen
data_BaMoIr2
_symmetry_space_group_name_H-M   'P 1'
_cell_length_a   3.34504455
_cell_length_b   3.34504455
_cell_length_c   7.72950671
_cell_angle_alpha   90.00000000
_cell_angle_beta   90.00000000
_cell_angle_gamma   90.00000000
_symmetry_Int_Tables_number   1
_chemical_formula_structural   BaMoIr2
_chemical_formula_sum   'Ba1 Mo1 Ir2'
_cell_volume   86.48794738
_cell_formula_units_Z   1
loop_
 _symmetry_equiv_pos_site_id
 _symmetry_equiv_pos_as_xyz
  1  'x, y, z'
loop_
 _atom_site_type_symbol
 _atom_site_label
 _atom_site_symmetry_multiplicity
 _atom_site_fract_x
 _atom_site_fract_y
 _atom_site_fract_z
 _atom_site_occupancy
  Ba  Ba0  1  0.49999932  0.49999932  0.76713279  1
  Mo  Mo1  1  0.00000000  0.00000000  0.39979478  1
  Ir  Ir2  1  0.00000000  0.00000000  0.06562359  1
  Ir  Ir3  1  0.49999932  0.49999932  0.26744848  1
