# generated using pymatgen
data_Na2CdSnS4
_symmetry_space_group_name_H-M   'P 1'
_cell_length_a   6.46973987
_cell_length_b   6.46992337
_cell_length_c   6.87309661
_cell_angle_alpha   61.92180335
_cell_angle_beta   61.92267021
_cell_angle_gamma   89.99927294
_symmetry_Int_Tables_number   1
_chemical_formula_structural   Na2CdSnS4
_chemical_formula_sum   'Na2 Cd1 Sn1 S4'
_cell_volume   214.70639673
_cell_formula_units_Z   1
loop_
 _symmetry_equiv_pos_site_id
 _symmetry_equiv_pos_as_xyz
  1  'x, y, z'
loop_
 _atom_site_type_symbol
 _atom_site_label
 _atom_site_symmetry_multiplicity
 _atom_site_fract_x
 _atom_site_fract_y
 _atom_site_fract_z
 _atom_site_occupancy
  Na  Na0  1  0.76413303  0.76413366  0.47173295  1
  Na  Na1  1  0.01412178  0.51412195  0.97175587  1
  Cd  Cd2  1  0.51411198  0.01411275  0.97177512  1
  Sn  Sn3  1  0.26410927  0.26410958  0.47178096  1
  S  S4  1  0.17216782  0.15238861  0.22380637  1
  S  S5  1  0.60402532  0.62380515  0.22380637  1
  S  S6  1  0.37587140  0.92419284  0.71972074  1
  S  S7  1  0.90440687  0.35608668  0.71972074  1
