# generated using pymatgen
data_BaHf2Ru
_symmetry_space_group_name_H-M   'P 1'
_cell_length_a   3.33158083
_cell_length_b   3.33280496
_cell_length_c   8.95281529
_cell_angle_alpha   90.00000000
_cell_angle_beta   90.00000000
_cell_angle_gamma   90.00000000
_symmetry_Int_Tables_number   1
_chemical_formula_structural   BaHf2Ru
_chemical_formula_sum   'Ba1 Hf2 Ru1'
_cell_volume   99.40766629
_cell_formula_units_Z   1
loop_
 _symmetry_equiv_pos_site_id
 _symmetry_equiv_pos_as_xyz
  1  'x, y, z'
loop_
 _atom_site_type_symbol
 _atom_site_label
 _atom_site_symmetry_multiplicity
 _atom_site_fract_x
 _atom_site_fract_y
 _atom_site_fract_z
 _atom_site_occupancy
  Ba  Ba0  1  0.49999988  0.49999926  0.00000000  1
  Hf  Hf1  1  0.00000000  0.00000000  0.66549261  1
  Hf  Hf2  1  0.00000000  0.00000000  0.33450792  1
  Ru  Ru3  1  0.49999988  0.49999926  0.50000026  1
