# generated using pymatgen
data_KCr3O8
_symmetry_space_group_name_H-M   'P 1'
_cell_length_a   5.04781326
_cell_length_b   5.04781326
_cell_length_c   7.56406071
_cell_angle_alpha   85.45300446
_cell_angle_beta   85.45300446
_cell_angle_gamma   65.75035705
_symmetry_Int_Tables_number   1
_chemical_formula_structural   KCr3O8
_chemical_formula_sum   'K1 Cr3 O8'
_cell_volume   174.94471062
_cell_formula_units_Z   1
loop_
 _symmetry_equiv_pos_site_id
 _symmetry_equiv_pos_as_xyz
  1  'x, y, z'
loop_
 _atom_site_type_symbol
 _atom_site_label
 _atom_site_symmetry_multiplicity
 _atom_site_fract_x
 _atom_site_fract_y
 _atom_site_fract_z
 _atom_site_occupancy
  K  K0  1  0.00000000  0.00000000  0.00000000  1
  Cr  Cr1  1  0.00000008  0.00000008  0.50000029  1
  Cr  Cr2  1  0.62354098  0.62354098  0.70634467  1
  Cr  Cr3  1  0.37645859  0.37645859  0.29365464  1
  O  O4  1  0.22474459  0.22474459  0.44995666  1
  O  O5  1  0.77525499  0.77525499  0.55004265  1
  O  O6  1  0.68164886  0.68164886  0.90430959  1
  O  O7  1  0.31835071  0.31835071  0.09568971  1
  O  O8  1  0.25963445  0.76692696  0.68241145  1
  O  O9  1  0.23307261  0.74036513  0.31758786  1
  O  O10  1  0.74036513  0.23307261  0.31758786  1
  O  O11  1  0.76692696  0.25963445  0.68241145  1
