# generated using pymatgen
data_MnBeIr4
_symmetry_space_group_name_H-M   'P 1'
_cell_length_a   5.08703461
_cell_length_b   5.08703461
_cell_length_c   5.08703461
_cell_angle_alpha   60.00000000
_cell_angle_beta   60.00000000
_cell_angle_gamma   60.00000000
_symmetry_Int_Tables_number   1
_chemical_formula_structural   MnBeIr4
_chemical_formula_sum   'Mn1 Be1 Ir4'
_cell_volume   93.08486626
_cell_formula_units_Z   1
loop_
 _symmetry_equiv_pos_site_id
 _symmetry_equiv_pos_as_xyz
  1  'x, y, z'
loop_
 _atom_site_type_symbol
 _atom_site_label
 _atom_site_symmetry_multiplicity
 _atom_site_fract_x
 _atom_site_fract_y
 _atom_site_fract_z
 _atom_site_occupancy
  Mn  Mn0  1  0.75000069  0.75000069  0.75000069  1
  Be  Be1  1  0.00000000  0.00000000  0.00000000  1
  Ir  Ir2  1  0.37481736  0.37481736  0.37481736  1
  Ir  Ir3  1  0.37481736  0.87554878  0.37481736  1
  Ir  Ir4  1  0.37481736  0.37481736  0.87554878  1
  Ir  Ir5  1  0.87554878  0.37481736  0.37481736  1
