# generated using pymatgen
data_Rb3NiO2
_symmetry_space_group_name_H-M   'P 1'
_cell_length_a   6.29313818
_cell_length_b   6.29313818
_cell_length_c   7.22365195
_cell_angle_alpha   90.00000000
_cell_angle_beta   90.00000000
_cell_angle_gamma   90.00000000
_symmetry_Int_Tables_number   1
_chemical_formula_structural   Rb3NiO2
_chemical_formula_sum   'Rb6 Ni2 O4'
_cell_volume   286.08253692
_cell_formula_units_Z   2
loop_
 _symmetry_equiv_pos_site_id
 _symmetry_equiv_pos_as_xyz
  1  'x, y, z'
loop_
 _atom_site_type_symbol
 _atom_site_label
 _atom_site_symmetry_multiplicity
 _atom_site_fract_x
 _atom_site_fract_y
 _atom_site_fract_z
 _atom_site_occupancy
  Rb  Rb0  1  0.00000000  0.50000014  0.24999993  1
  Rb  Rb1  1  0.00000000  0.50000014  0.74999980  1
  Rb  Rb2  1  0.50000014  0.00000000  0.24999993  1
  Rb  Rb3  1  0.50000014  0.00000000  0.74999980  1
  Rb  Rb4  1  0.50000014  0.50000014  0.00000000  1
  Rb  Rb5  1  0.00000000  0.00000000  0.49999986  1
  Ni  Ni6  1  0.00000000  0.00000000  0.00000000  1
  Ni  Ni7  1  0.50000014  0.50000014  0.49999986  1
  O  O8  1  0.19862553  0.80137475  0.00000000  1
  O  O9  1  0.80137475  0.19862553  0.00000000  1
  O  O10  1  0.69862568  0.69862568  0.49999986  1
  O  O11  1  0.30137461  0.30137461  0.49999986  1
