# generated using pymatgen
data_ZrCo3B2
_symmetry_space_group_name_H-M   'P 1'
_cell_length_a   4.86053576
_cell_length_b   4.86048624
_cell_length_c   3.02977621
_cell_angle_alpha   90.00000000
_cell_angle_beta   90.00000000
_cell_angle_gamma   120.00033703
_symmetry_Int_Tables_number   1
_chemical_formula_structural   ZrCo3B2
_chemical_formula_sum   'Zr1 Co3 B2'
_cell_volume   61.98742095
_cell_formula_units_Z   1
loop_
 _symmetry_equiv_pos_site_id
 _symmetry_equiv_pos_as_xyz
  1  'x, y, z'
loop_
 _atom_site_type_symbol
 _atom_site_label
 _atom_site_symmetry_multiplicity
 _atom_site_fract_x
 _atom_site_fract_y
 _atom_site_fract_z
 _atom_site_occupancy
  Zr  Zr0  1  0.00000000  0.00000000  0.00000000  1
  Co  Co1  1  0.00000010  0.50000024  0.50000063  1
  Co  Co2  1  0.50000047  0.50000030  0.50000063  1
  Co  Co3  1  0.50000037  0.00000007  0.50000063  1
  B  B4  1  0.66666650  0.33333213  0.00000000  1
  B  B5  1  0.33333444  0.66666848  0.00000000  1
