# generated using pymatgen
data_NOF
_symmetry_space_group_name_H-M   'P 1'
_cell_length_a   3.83259919
_cell_length_b   4.06871343
_cell_length_c   10.23852260
_cell_angle_alpha   90.00000000
_cell_angle_beta   90.00000000
_cell_angle_gamma   90.00000000
_symmetry_Int_Tables_number   1
_chemical_formula_structural   NOF
_chemical_formula_sum   'N4 O4 F4'
_cell_volume   159.65693916
_cell_formula_units_Z   4
loop_
 _symmetry_equiv_pos_site_id
 _symmetry_equiv_pos_as_xyz
  1  'x, y, z'
loop_
 _atom_site_type_symbol
 _atom_site_label
 _atom_site_symmetry_multiplicity
 _atom_site_fract_x
 _atom_site_fract_y
 _atom_site_fract_z
 _atom_site_occupancy
  N  N0  1  0.68967335  -0.01805366  0.58710411  1
  N  N1  1  0.81032696  0.01805366  0.08710424  1
  N  N2  1  0.31032686  0.48194592  0.91289551  1
  N  N3  1  0.18967325  0.51805324  0.41289563  1
  O  O4  1  0.91474416  0.95116828  0.65698734  1
  O  O5  1  0.58525615  0.04883088  0.15698747  1
  O  O6  1  0.08525605  0.45116870  0.84301228  1
  O  O7  1  0.41474406  0.54883046  0.34301241  1
  F  F8  1  0.48443245  0.35416946  0.61908590  1
  F  F9  1  0.01556765  0.64582970  0.11908602  1
  F  F10  1  0.51556776  0.85416904  0.88091372  1
  F  F11  1  -0.01556765  0.14583012  0.38091385  1
