# generated using pymatgen
data_Ca4ScBe
_symmetry_space_group_name_H-M   'P 1'
_cell_length_a   6.53688274
_cell_length_b   6.53688274
_cell_length_c   6.53688274
_cell_angle_alpha   60.00000000
_cell_angle_beta   60.00000000
_cell_angle_gamma   60.00000000
_symmetry_Int_Tables_number   1
_chemical_formula_structural   Ca4ScBe
_chemical_formula_sum   'Ca4 Sc1 Be1'
_cell_volume   197.51363677
_cell_formula_units_Z   1
loop_
 _symmetry_equiv_pos_site_id
 _symmetry_equiv_pos_as_xyz
  1  'x, y, z'
loop_
 _atom_site_type_symbol
 _atom_site_label
 _atom_site_symmetry_multiplicity
 _atom_site_fract_x
 _atom_site_fract_y
 _atom_site_fract_z
 _atom_site_occupancy
  Ca  Ca0  1  0.12575579  0.62474748  0.62474748  1
  Ca  Ca1  1  0.62474748  0.62474748  0.62474748  1
  Ca  Ca2  1  0.62474748  0.12575579  0.62474748  1
  Ca  Ca3  1  0.62474748  0.62474748  0.12575579  1
  Sc  Sc4  1  0.24999978  0.24999978  0.24999978  1
  Be  Be5  1  0.00000000  0.00000000  0.00000000  1
