# generated using pymatgen
data_ReO3
_symmetry_space_group_name_H-M   'P 1'
_cell_length_a   6.57888212
_cell_length_b   6.57888212
_cell_length_c   6.57888212
_cell_angle_alpha   109.47122063
_cell_angle_beta   109.47122063
_cell_angle_gamma   109.47122063
_symmetry_Int_Tables_number   1
_chemical_formula_structural   ReO3
_chemical_formula_sum   'Re4 O12'
_cell_volume   219.19690794
_cell_formula_units_Z   4
loop_
 _symmetry_equiv_pos_site_id
 _symmetry_equiv_pos_as_xyz
  1  'x, y, z'
loop_
 _atom_site_type_symbol
 _atom_site_label
 _atom_site_symmetry_multiplicity
 _atom_site_fract_x
 _atom_site_fract_y
 _atom_site_fract_z
 _atom_site_occupancy
  Re  Re0  1  0.50000008  -0.00000000  0.00000000  1
  Re  Re1  1  0.00000000  0.50000008  0.00000000  1
  Re  Re2  1  0.00000000  0.00000000  0.50000008  1
  Re  Re3  1  0.50000008  0.50000008  0.50000008  1
  O  O4  1  0.50001439  0.75005258  0.74996198  1
  O  O5  1  0.00009060  0.75005258  0.25003819  1
  O  O6  1  -0.00009060  0.24994759  0.74996198  1
  O  O7  1  0.49998578  0.24994759  0.25003819  1
  O  O8  1  0.74996198  -0.00009060  0.24994759  1
  O  O9  1  0.25003819  0.49998578  0.24994759  1
  O  O10  1  0.74996198  0.50001439  0.75005258  1
  O  O11  1  0.25003819  0.00009060  0.75005258  1
  O  O12  1  0.75005258  0.25003819  0.00009060  1
  O  O13  1  0.75005258  0.74996198  0.50001439  1
  O  O14  1  0.24994759  0.25003819  0.49998578  1
  O  O15  1  0.24994759  0.74996198  -0.00009060  1
