# generated using pymatgen
data_Be2CoSe
_symmetry_space_group_name_H-M   'P 1'
_cell_length_a   3.11771239
_cell_length_b   3.11771239
_cell_length_c   4.76001594
_cell_angle_alpha   90.00000000
_cell_angle_beta   90.00000000
_cell_angle_gamma   90.00000000
_symmetry_Int_Tables_number   1
_chemical_formula_structural   Be2CoSe
_chemical_formula_sum   'Be2 Co1 Se1'
_cell_volume   46.26797635
_cell_formula_units_Z   1
loop_
 _symmetry_equiv_pos_site_id
 _symmetry_equiv_pos_as_xyz
  1  'x, y, z'
loop_
 _atom_site_type_symbol
 _atom_site_label
 _atom_site_symmetry_multiplicity
 _atom_site_fract_x
 _atom_site_fract_y
 _atom_site_fract_z
 _atom_site_occupancy
  Be  Be0  1  0.00000000  0.00000000  0.01494793  1
  Be  Be1  1  0.49999962  0.49999962  0.25828219  1
  Co  Co2  1  0.00000000  0.00000000  0.46172234  1
  Se  Se3  1  0.49999962  0.49999962  0.76504882  1
