# generated using pymatgen
data_HfBeCd
_symmetry_space_group_name_H-M   'P 1'
_cell_length_a   6.05795989
_cell_length_b   6.05795989
_cell_length_c   6.05795989
_cell_angle_alpha   151.45321240
_cell_angle_beta   151.45321240
_cell_angle_gamma   40.81233673
_symmetry_Int_Tables_number   1
_chemical_formula_structural   HfBeCd
_chemical_formula_sum   'Hf1 Be1 Cd1'
_cell_volume   50.66389468
_cell_formula_units_Z   1
loop_
 _symmetry_equiv_pos_site_id
 _symmetry_equiv_pos_as_xyz
  1  'x, y, z'
loop_
 _atom_site_type_symbol
 _atom_site_label
 _atom_site_symmetry_multiplicity
 _atom_site_fract_x
 _atom_site_fract_y
 _atom_site_fract_z
 _atom_site_occupancy
  Hf  Hf0  1  0.64543026  0.64543026  0.00000000  1
  Be  Be1  1  0.00026694  0.00026694  0.00000000  1
  Cd  Cd2  1  0.35430292  0.35430292  0.00000000  1
