# generated using pymatgen
data_BeVIn2
_symmetry_space_group_name_H-M   'P 1'
_cell_length_a   4.13975952
_cell_length_b   4.13975952
_cell_length_c   3.92548746
_cell_angle_alpha   90.00000000
_cell_angle_beta   90.00000000
_cell_angle_gamma   90.00000000
_symmetry_Int_Tables_number   1
_chemical_formula_structural   BeVIn2
_chemical_formula_sum   'Be1 V1 In2'
_cell_volume   67.27346876
_cell_formula_units_Z   1
loop_
 _symmetry_equiv_pos_site_id
 _symmetry_equiv_pos_as_xyz
  1  'x, y, z'
loop_
 _atom_site_type_symbol
 _atom_site_label
 _atom_site_symmetry_multiplicity
 _atom_site_fract_x
 _atom_site_fract_y
 _atom_site_fract_z
 _atom_site_occupancy
  Be  Be0  1  0.00000000  0.00000000  0.50000032  1
  V  V1  1  0.50000006  0.50000006  0.50000032  1
  In  In2  1  0.50000006  0.00000000  0.00000000  1
  In  In3  1  0.00000000  0.50000006  0.00000000  1
