# generated using pymatgen
data_Mn2Hg5
_symmetry_space_group_name_H-M   'P 1'
_cell_length_a   9.95628562
_cell_length_b   9.95628562
_cell_length_c   2.99495067
_cell_angle_alpha   90.00000000
_cell_angle_beta   90.00000000
_cell_angle_gamma   90.00000000
_symmetry_Int_Tables_number   1
_chemical_formula_structural   Mn2Hg5
_chemical_formula_sum   'Mn4 Hg10'
_cell_volume   296.88234139
_cell_formula_units_Z   2
loop_
 _symmetry_equiv_pos_site_id
 _symmetry_equiv_pos_as_xyz
  1  'x, y, z'
loop_
 _atom_site_type_symbol
 _atom_site_label
 _atom_site_symmetry_multiplicity
 _atom_site_fract_x
 _atom_site_fract_y
 _atom_site_fract_z
 _atom_site_occupancy
  Mn  Mn0  1  0.17814848  0.67814870  0.49999989  1
  Mn  Mn1  1  0.82185196  0.32185174  0.49999989  1
  Mn  Mn2  1  0.32185174  0.17814848  0.49999989  1
  Mn  Mn3  1  0.67814870  0.82185196  0.49999989  1
  Hg  Hg4  1  0.00000000  0.50000022  0.00000000  1
  Hg  Hg5  1  0.50000022  0.00000000  0.00000000  1
  Hg  Hg6  1  0.06778057  0.20235758  0.00000000  1
  Hg  Hg7  1  0.93221987  0.79764286  0.00000000  1
  Hg  Hg8  1  0.79764286  0.06778057  0.00000000  1
  Hg  Hg9  1  0.20235758  0.93221987  0.00000000  1
  Hg  Hg10  1  0.43221965  0.70235780  0.00000000  1
  Hg  Hg11  1  0.56778079  0.29764264  0.00000000  1
  Hg  Hg12  1  0.70235780  0.56778079  0.00000000  1
  Hg  Hg13  1  0.29764264  0.43221965  0.00000000  1
