# generated using pymatgen
data_BeCdSi
_symmetry_space_group_name_H-M   'P 1'
_cell_length_a   3.06378919
_cell_length_b   3.06378919
_cell_length_c   5.92391638
_cell_angle_alpha   90.00000000
_cell_angle_beta   90.00000000
_cell_angle_gamma   120.00000700
_symmetry_Int_Tables_number   1
_chemical_formula_structural   BeCdSi
_chemical_formula_sum   'Be1 Cd1 Si1'
_cell_volume   48.15676221
_cell_formula_units_Z   1
loop_
 _symmetry_equiv_pos_site_id
 _symmetry_equiv_pos_as_xyz
  1  'x, y, z'
loop_
 _atom_site_type_symbol
 _atom_site_label
 _atom_site_symmetry_multiplicity
 _atom_site_fract_x
 _atom_site_fract_y
 _atom_site_fract_z
 _atom_site_occupancy
  Be  Be0  1  0.00000000  0.00000000  0.02329900  1
  Cd  Cd1  1  0.33333151  0.66666559  0.68880532  1
  Si  Si2  1  0.66666559  0.33333151  0.28789629  1
