# generated using pymatgen
data_Be2TlPd
_symmetry_space_group_name_H-M   'P 1'
_cell_length_a   4.27255124
_cell_length_b   4.27255124
_cell_length_c   4.27255124
_cell_angle_alpha   120.01811006
_cell_angle_beta   120.01811006
_cell_angle_gamma   89.96863532
_symmetry_Int_Tables_number   1
_chemical_formula_structural   Be2TlPd
_chemical_formula_sum   'Be2 Tl1 Pd1'
_cell_volume   55.13506290
_cell_formula_units_Z   1
loop_
 _symmetry_equiv_pos_site_id
 _symmetry_equiv_pos_as_xyz
  1  'x, y, z'
loop_
 _atom_site_type_symbol
 _atom_site_label
 _atom_site_symmetry_multiplicity
 _atom_site_fract_x
 _atom_site_fract_y
 _atom_site_fract_z
 _atom_site_occupancy
  Be  Be0  1  0.00000000  0.00000000  0.00000000  1
  Be  Be1  1  0.50000054  0.50000054  0.00000000  1
  Tl  Tl2  1  0.75000008  0.25000027  0.49999981  1
  Pd  Pd3  1  0.25000027  0.75000008  0.49999981  1
