# generated using pymatgen
data_CaBePt
_symmetry_space_group_name_H-M   'P 1'
_cell_length_a   3.90160509
_cell_length_b   3.90160509
_cell_length_c   4.28807037
_cell_angle_alpha   90.00000000
_cell_angle_beta   90.00000000
_cell_angle_gamma   119.99999113
_symmetry_Int_Tables_number   1
_chemical_formula_structural   CaBePt
_chemical_formula_sum   'Ca1 Be1 Pt1'
_cell_volume   56.53002704
_cell_formula_units_Z   1
loop_
 _symmetry_equiv_pos_site_id
 _symmetry_equiv_pos_as_xyz
  1  'x, y, z'
loop_
 _atom_site_type_symbol
 _atom_site_label
 _atom_site_symmetry_multiplicity
 _atom_site_fract_x
 _atom_site_fract_y
 _atom_site_fract_z
 _atom_site_occupancy
  Ca  Ca0  1  0.66666633  0.33333223  0.33329509  1
  Be  Be1  1  0.00000000  0.00000000  0.83336312  1
  Pt  Pt2  1  0.33333223  0.66666633  0.83334262  1
