# generated using pymatgen
data_Dy5Sb3
_symmetry_space_group_name_H-M   'P 1'
_cell_length_a   8.96869539
_cell_length_b   8.96869541
_cell_length_c   6.26059970
_cell_angle_alpha   90.00000000
_cell_angle_beta   90.00000000
_cell_angle_gamma   119.99999993
_symmetry_Int_Tables_number   1
_chemical_formula_structural   Dy5Sb3
_chemical_formula_sum   'Dy10 Sb6'
_cell_volume   436.11910979
_cell_formula_units_Z   2
loop_
 _symmetry_equiv_pos_site_id
 _symmetry_equiv_pos_as_xyz
  1  'x, y, z'
loop_
 _atom_site_type_symbol
 _atom_site_label
 _atom_site_symmetry_multiplicity
 _atom_site_fract_x
 _atom_site_fract_y
 _atom_site_fract_z
 _atom_site_occupancy
  Dy  Dy0  1  0.66666769  0.33333499  0.00000000  1
  Dy  Dy1  1  0.33333283  0.66666552  0.50000002  1
  Dy  Dy2  1  0.33333283  0.66666552  0.00000000  1
  Dy  Dy3  1  0.66666769  0.33333499  0.50000002  1
  Dy  Dy4  1  0.00000053  0.75399395  0.25000001  1
  Dy  Dy5  1  0.24600690  0.24600646  0.25000001  1
  Dy  Dy6  1  0.75399055  0.00000010  0.25000001  1
  Dy  Dy7  1  0.99999998  0.24600656  0.75000004  1
  Dy  Dy8  1  0.75399362  0.75399405  0.75000004  1
  Dy  Dy9  1  0.24600983  0.00000003  0.75000004  1
  Sb  Sb10  1  1.00000026  0.38797592  0.25000001  1
  Sb  Sb11  1  0.61202450  0.61202467  0.25000001  1
  Sb  Sb12  1  0.38797690  0.00000005  0.25000001  1
  Sb  Sb13  1  0.00000025  0.61202459  0.75000004  1
  Sb  Sb14  1  0.38797601  0.38797584  0.75000004  1
  Sb  Sb15  1  0.61202349  0.00000008  0.75000004  1
