# generated using pymatgen
data_Er3Ir
_symmetry_space_group_name_H-M   'P 1'
_cell_length_a   6.30576548
_cell_length_b   7.13339865
_cell_length_c   9.07208134
_cell_angle_alpha   90.00000000
_cell_angle_beta   90.00000000
_cell_angle_gamma   90.00000000
_symmetry_Int_Tables_number   1
_chemical_formula_structural   Er3Ir
_chemical_formula_sum   'Er12 Ir4'
_cell_volume   408.07618039
_cell_formula_units_Z   4
loop_
 _symmetry_equiv_pos_site_id
 _symmetry_equiv_pos_as_xyz
  1  'x, y, z'
loop_
 _atom_site_type_symbol
 _atom_site_label
 _atom_site_symmetry_multiplicity
 _atom_site_fract_x
 _atom_site_fract_y
 _atom_site_fract_z
 _atom_site_occupancy
  Er  Er0  1  0.82639174  0.17857566  0.93930565  1
  Er  Er1  1  0.32639138  0.32142443  0.06069420  1
  Er  Er2  1  0.17360898  0.82142453  0.43930573  1
  Er  Er3  1  0.67360933  0.67857576  0.56069413  1
  Er  Er4  1  0.17360898  0.82142453  0.06069420  1
  Er  Er5  1  0.67360933  0.67857576  0.93930565  1
  Er  Er6  1  0.82639174  0.17857566  0.56069413  1
  Er  Er7  1  0.32639138  0.32142443  0.43930573  1
  Er  Er8  1  0.37350457  0.03185032  0.74999989  1
  Er  Er9  1  0.87350492  0.46814978  0.24999996  1
  Er  Er10  1  0.62649615  0.96814987  0.24999996  1
  Er  Er11  1  0.12649579  0.53185041  0.74999989  1
  Ir  Ir12  1  0.54343251  0.38522189  0.74999989  1
  Ir  Ir13  1  0.04343216  0.11477820  0.24999996  1
  Ir  Ir14  1  0.45656820  0.61477830  0.24999996  1
  Ir  Ir15  1  0.95656856  0.88522199  0.74999989  1
