# generated using pymatgen
data_La5Si3
_symmetry_space_group_name_H-M   'P 1'
_cell_length_a   8.96840360
_cell_length_b   8.96840360
_cell_length_c   8.96840360
_cell_angle_alpha   126.89205298
_cell_angle_beta   126.89205298
_cell_angle_gamma   78.42686437
_symmetry_Int_Tables_number   1
_chemical_formula_structural   La5Si3
_chemical_formula_sum   'La10 Si6'
_cell_volume   446.77308890
_cell_formula_units_Z   2
loop_
 _symmetry_equiv_pos_site_id
 _symmetry_equiv_pos_as_xyz
  1  'x, y, z'
loop_
 _atom_site_type_symbol
 _atom_site_label
 _atom_site_symmetry_multiplicity
 _atom_site_fract_x
 _atom_site_fract_y
 _atom_site_fract_z
 _atom_site_occupancy
  La  La0  1  0.00000000  0.00000000  0.00000000  1
  La  La1  1  0.50000030  0.50000030  0.00000000  1
  La  La2  1  0.47007329  0.97007316  0.14453091  1
  La  La3  1  0.82554183  0.32554196  0.85546884  1
  La  La4  1  0.97007316  0.82554226  0.49999987  1
  La  La5  1  0.32554196  0.47007287  0.49999987  1
  La  La6  1  0.67445820  0.52992730  0.49999987  1
  La  La7  1  0.02992700  0.17445791  0.49999987  1
  La  La8  1  0.17445833  0.67445820  0.14453091  1
  La  La9  1  0.52992687  0.02992700  0.85546884  1
  Si  Si10  1  0.25000015  0.25000015  0.00000000  1
  Si  Si11  1  0.75000044  0.75000044  0.00000000  1
  Si  Si12  1  0.11459494  0.61459481  0.72918975  1
  Si  Si13  1  0.88540523  0.38540536  0.27081000  1
  Si  Si14  1  0.61459523  0.88540523  0.49999987  1
  Si  Si15  1  0.38540493  0.11459494  0.49999987  1
