# generated using pymatgen
data_BePt4W
_symmetry_space_group_name_H-M   'P 1'
_cell_length_a   5.17073684
_cell_length_b   5.17073684
_cell_length_c   5.17073684
_cell_angle_alpha   60.00000000
_cell_angle_beta   60.00000000
_cell_angle_gamma   60.00000000
_symmetry_Int_Tables_number   1
_chemical_formula_structural   BePt4W
_chemical_formula_sum   'Be1 Pt4 W1'
_cell_volume   97.75574897
_cell_formula_units_Z   1
loop_
 _symmetry_equiv_pos_site_id
 _symmetry_equiv_pos_as_xyz
  1  'x, y, z'
loop_
 _atom_site_type_symbol
 _atom_site_label
 _atom_site_symmetry_multiplicity
 _atom_site_fract_x
 _atom_site_fract_y
 _atom_site_fract_z
 _atom_site_occupancy
  Be  Be0  1  0.00000000  0.00000000  0.00000000  1
  Pt  Pt1  1  0.12513772  0.62495320  0.62495320  1
  Pt  Pt2  1  0.62495320  0.62495320  0.62495320  1
  Pt  Pt3  1  0.62495320  0.12513772  0.62495320  1
  Pt  Pt4  1  0.62495320  0.62495320  0.12513772  1
  W  W5  1  0.24999979  0.24999979  0.24999979  1
