# generated using pymatgen
data_TeAsHO5
_symmetry_space_group_name_H-M   'P 1'
_cell_length_a   7.43024326
_cell_length_b   6.04788162
_cell_length_c   9.37271889
_cell_angle_alpha   90.00000000
_cell_angle_beta   102.97973615
_cell_angle_gamma   90.00000000
_symmetry_Int_Tables_number   1
_chemical_formula_structural   TeAsHO5
_chemical_formula_sum   'Te4 As4 H4 O20'
_cell_volume   410.42260343
_cell_formula_units_Z   4
loop_
 _symmetry_equiv_pos_site_id
 _symmetry_equiv_pos_as_xyz
  1  'x, y, z'
loop_
 _atom_site_type_symbol
 _atom_site_label
 _atom_site_symmetry_multiplicity
 _atom_site_fract_x
 _atom_site_fract_y
 _atom_site_fract_z
 _atom_site_occupancy
  Te  Te0  1  0.38081888  0.12659277  0.59163654  1
  Te  Te1  1  0.61918148  0.62659264  0.90836331  1
  Te  Te2  1  0.61918120  0.87340696  0.40836336  1
  Te  Te3  1  0.38081860  0.37340709  0.09163659  1
  As  As4  1  0.80297371  0.36603394  0.58600594  1
  As  As5  1  0.19702664  0.86603381  0.91399391  1
  As  As6  1  0.19702637  0.63396579  0.41399396  1
  As  As7  1  0.80297344  0.13396592  0.08600599  1
  H  H8  1  0.93281129  0.16305722  0.33269440  1
  H  H9  1  0.06718851  0.66305708  0.16730554  1
  H  H10  1  0.93281157  0.33694265  0.83269435  1
  H  H11  1  0.06718879  0.83694252  0.66730549  1
  O  O12  1  0.40193478  0.64370715  0.35235814  1
  O  O13  1  0.01871435  0.86558205  0.75777417  1
  O  O14  1  0.98128601  0.36558219  0.74222568  1
  O  O15  1  0.82467720  0.35718384  0.97719770  1
  O  O16  1  0.17532316  0.85718371  0.52280215  1
  O  O17  1  0.17532288  0.64281589  0.02280220  1
  O  O18  1  0.82467692  0.14281602  0.47719775  1
  O  O19  1  0.59806502  0.14370728  0.14764180  1
  O  O20  1  0.40193506  0.85629245  0.85235810  1
  O  O21  1  0.41976290  0.38149672  0.89333091  1
  O  O22  1  0.81292624  0.89609544  0.99021926  1
  O  O23  1  0.18707412  0.39609557  0.50978059  1
  O  O24  1  0.18707384  0.10390429  0.00978064  1
  O  O25  1  0.81292596  0.60390416  0.49021931  1
  O  O26  1  0.01871407  0.63441755  0.25777422  1
  O  O27  1  0.58023746  0.88149659  0.60666894  1
  O  O28  1  0.58023718  0.61850301  0.10666899  1
  O  O29  1  0.41976262  0.11850315  0.39333096  1
  O  O30  1  0.59806530  0.35629258  0.64764175  1
  O  O31  1  0.98128573  0.13441768  0.24222573  1
