# generated using pymatgen
data_BeSiP
_symmetry_space_group_name_H-M   'P 1'
_cell_length_a   2.67220536
_cell_length_b   2.67220536
_cell_length_c   7.08783474
_cell_angle_alpha   90.00000000
_cell_angle_beta   90.00000000
_cell_angle_gamma   120.00001014
_symmetry_Int_Tables_number   1
_chemical_formula_structural   BeSiP
_chemical_formula_sum   'Be1 Si1 P1'
_cell_volume   43.83124751
_cell_formula_units_Z   1
loop_
 _symmetry_equiv_pos_site_id
 _symmetry_equiv_pos_as_xyz
  1  'x, y, z'
loop_
 _atom_site_type_symbol
 _atom_site_label
 _atom_site_symmetry_multiplicity
 _atom_site_fract_x
 _atom_site_fract_y
 _atom_site_fract_z
 _atom_site_occupancy
  Be  Be0  1  0.00000000  0.00000000  0.98922628  1
  Si  Si1  1  0.66666623  0.33333192  0.26635077  1
  P  P2  1  0.33333192  0.66666623  0.74442161  1
