# generated using pymatgen
data_AgSbTe2
_symmetry_space_group_name_H-M   'P 1'
_cell_length_a   8.66104750
_cell_length_b   8.66104750
_cell_length_c   8.66104750
_cell_angle_alpha   60.00000000
_cell_angle_beta   60.00000000
_cell_angle_gamma   60.00000000
_symmetry_Int_Tables_number   1
_chemical_formula_structural   AgSbTe2
_chemical_formula_sum   'Ag4 Sb4 Te8'
_cell_volume   459.40557728
_cell_formula_units_Z   4
loop_
 _symmetry_equiv_pos_site_id
 _symmetry_equiv_pos_as_xyz
  1  'x, y, z'
loop_
 _atom_site_type_symbol
 _atom_site_label
 _atom_site_symmetry_multiplicity
 _atom_site_fract_x
 _atom_site_fract_y
 _atom_site_fract_z
 _atom_site_occupancy
  Ag  Ag0  1  0.00000000  0.00000000  0.00000000  1
  Ag  Ag1  1  0.50000037  0.50000037  -0.00000000  1
  Ag  Ag2  1  0.50000037  0.00000000  0.50000037  1
  Ag  Ag3  1  0.50000037  0.00000000  0.00000000  1
  Sb  Sb4  1  0.50000037  0.50000037  0.50000037  1
  Sb  Sb5  1  0.00000000  0.00000000  0.50000037  1
  Sb  Sb6  1  0.00000000  0.50000037  -0.00000000  1
  Sb  Sb7  1  0.00000000  0.50000037  0.50000037  1
  Te  Te8  1  0.25461715  0.75461753  0.23614928  1
  Te  Te9  1  0.74538359  0.24538322  0.76385146  1
  Te  Te10  1  0.74538359  0.24538322  0.24538322  1
  Te  Te11  1  0.25461715  0.75461753  0.75461753  1
  Te  Te12  1  0.74538359  0.76385146  0.24538322  1
  Te  Te13  1  0.25461715  0.23614928  0.75461753  1
  Te  Te14  1  0.73614966  0.75461753  0.75461753  1
  Te  Te15  1  0.26385109  0.24538322  0.24538322  1
