# generated using pymatgen
data_LuZnSn2
_symmetry_space_group_name_H-M   'P 1'
_cell_length_a   4.33460633
_cell_length_b   4.33460633
_cell_length_c   9.67220591
_cell_angle_alpha   90.00000000
_cell_angle_beta   90.00000000
_cell_angle_gamma   90.00000000
_symmetry_Int_Tables_number   1
_chemical_formula_structural   LuZnSn2
_chemical_formula_sum   'Lu2 Zn2 Sn4'
_cell_volume   181.72925856
_cell_formula_units_Z   2
loop_
 _symmetry_equiv_pos_site_id
 _symmetry_equiv_pos_as_xyz
  1  'x, y, z'
loop_
 _atom_site_type_symbol
 _atom_site_label
 _atom_site_symmetry_multiplicity
 _atom_site_fract_x
 _atom_site_fract_y
 _atom_site_fract_z
 _atom_site_occupancy
  Lu  Lu0  1  0.25000021  0.25000021  0.25123617  1
  Lu  Lu1  1  0.75000064  0.75000064  0.74876426  1
  Zn  Zn2  1  0.75000064  0.25000021  0.50000021  1
  Zn  Zn3  1  0.25000021  0.75000064  0.50000021  1
  Sn  Sn4  1  0.75000064  0.25000021  0.00000000  1
  Sn  Sn5  1  0.25000021  0.75000064  0.00000000  1
  Sn  Sn6  1  0.25000021  0.25000021  0.68989213  1
  Sn  Sn7  1  0.75000064  0.75000064  0.31010829  1
