# generated using pymatgen
data_CaMoO4
_symmetry_space_group_name_H-M   'P 1'
_cell_length_a   6.80620934
_cell_length_b   6.80620934
_cell_length_c   6.80620934
_cell_angle_alpha   134.74653369
_cell_angle_beta   134.74653369
_cell_angle_gamma   65.92428500
_symmetry_Int_Tables_number   1
_chemical_formula_structural   CaMoO4
_chemical_formula_sum   'Ca2 Mo2 O8'
_cell_volume   156.62340724
_cell_formula_units_Z   2
loop_
 _symmetry_equiv_pos_site_id
 _symmetry_equiv_pos_as_xyz
  1  'x, y, z'
loop_
 _atom_site_type_symbol
 _atom_site_label
 _atom_site_symmetry_multiplicity
 _atom_site_fract_x
 _atom_site_fract_y
 _atom_site_fract_z
 _atom_site_occupancy
  Ca  Ca0  1  0.37500068  0.12500030  0.75000117  1
  Ca  Ca1  1  0.62500049  0.87500088  0.25000039  1
  Mo  Mo2  1  0.87500107  0.62500069  0.75000117  1
  Mo  Mo3  1  0.12500010  0.37500049  0.25000039  1
  O  O4  1  0.63945708  0.78383107  0.84315210  1
  O  O5  1  0.94068052  0.29630577  0.65685024  1
  O  O6  1  0.79630673  0.13945651  0.85562758  1
  O  O7  1  0.28383048  0.44067994  0.64437476  1
  O  O8  1  0.36054408  0.21617011  0.15684946  1
  O  O9  1  0.05932065  0.70369541  0.34315132  1
  O  O10  1  0.20369443  0.86054467  0.14437397  1
  O  O11  1  0.71617069  0.55932124  0.35562680  1
