# generated using pymatgen
data_Cu3AsS4
_symmetry_space_group_name_H-M   'P 1'
_cell_length_a   6.20351563
_cell_length_b   6.47848655
_cell_length_c   7.46484386
_cell_angle_alpha   90.00000000
_cell_angle_beta   90.00000000
_cell_angle_gamma   90.00000000
_symmetry_Int_Tables_number   1
_chemical_formula_structural   Cu3AsS4
_chemical_formula_sum   'Cu6 As2 S8'
_cell_volume   300.00754072
_cell_formula_units_Z   2
loop_
 _symmetry_equiv_pos_site_id
 _symmetry_equiv_pos_as_xyz
  1  'x, y, z'
loop_
 _atom_site_type_symbol
 _atom_site_label
 _atom_site_symmetry_multiplicity
 _atom_site_fract_x
 _atom_site_fract_y
 _atom_site_fract_z
 _atom_site_occupancy
  Cu  Cu0  1  0.49544493  0.83901137  0.00000000  1
  Cu  Cu1  1  0.99544528  0.16098916  0.49999974  1
  Cu  Cu2  1  0.99133966  0.67146795  0.75038697  1
  Cu  Cu3  1  0.49133930  0.32853258  0.74961225  1
  Cu  Cu4  1  0.49133930  0.32853258  0.25038723  1
  Cu  Cu5  1  0.99133966  0.67146795  0.24961251  1
  As  As6  1  0.99737788  0.16961651  0.00000000  1
  As  As7  1  0.49737753  0.83038403  0.49999974  1
  S  S8  1  0.62701307  0.17190889  0.00000000  1
  S  S9  1  0.12701272  0.82809164  0.49999974  1
  S  S10  1  0.12454575  0.83880267  0.00000000  1
  S  S11  1  0.62454610  0.16119786  0.49999974  1
  S  S12  1  0.62202145  0.66155166  0.75127258  1
  S  S13  1  0.12202110  0.33844887  0.74872665  1
  S  S14  1  0.12202110  0.33844887  0.25127284  1
  S  S15  1  0.62202145  0.66155166  0.24872691  1
