# generated using pymatgen
data_LaFeSi2
_symmetry_space_group_name_H-M   'P 1'
_cell_length_a   8.86008279
_cell_length_b   8.86008279
_cell_length_c   4.05125966
_cell_angle_alpha   90.00000000
_cell_angle_beta   90.00000000
_cell_angle_gamma   152.75461530
_symmetry_Int_Tables_number   1
_chemical_formula_structural   LaFeSi2
_chemical_formula_sum   'La2 Fe2 Si4'
_cell_volume   145.59404446
_cell_formula_units_Z   2
loop_
 _symmetry_equiv_pos_site_id
 _symmetry_equiv_pos_as_xyz
  1  'x, y, z'
loop_
 _atom_site_type_symbol
 _atom_site_label
 _atom_site_symmetry_multiplicity
 _atom_site_fract_x
 _atom_site_fract_y
 _atom_site_fract_z
 _atom_site_occupancy
  La  La0  1  0.10784722  0.89215320  0.75000006  1
  La  La1  1  0.89215320  0.10784722  0.25000002  1
  Fe  Fe2  1  0.75009140  0.24990902  0.75000006  1
  Fe  Fe3  1  0.24990902  0.75009140  0.25000002  1
  Si  Si4  1  0.30886738  0.69113304  0.75000006  1
  Si  Si5  1  0.69113304  0.30886738  0.25000002  1
  Si  Si6  1  0.46204090  0.53795952  0.75000006  1
  Si  Si7  1  0.53795952  0.46204090  0.25000002  1
