# generated using pymatgen
data_Sr2BeSn
_symmetry_space_group_name_H-M   'P 1'
_cell_length_a   6.17794112
_cell_length_b   6.17794112
_cell_length_c   6.17794112
_cell_angle_alpha   134.26774477
_cell_angle_beta   134.26774477
_cell_angle_gamma   66.67011287
_symmetry_Int_Tables_number   1
_chemical_formula_structural   Sr2BeSn
_chemical_formula_sum   'Sr2 Be1 Sn1'
_cell_volume   118.98223369
_cell_formula_units_Z   1
loop_
 _symmetry_equiv_pos_site_id
 _symmetry_equiv_pos_as_xyz
  1  'x, y, z'
loop_
 _atom_site_type_symbol
 _atom_site_label
 _atom_site_symmetry_multiplicity
 _atom_site_fract_x
 _atom_site_fract_y
 _atom_site_fract_z
 _atom_site_occupancy
  Sr  Sr0  1  0.00000000  0.00000000  0.00000000  1
  Sr  Sr1  1  0.24999988  0.74999989  0.50000000  1
  Be  Be2  1  0.49999977  0.49999977  0.00000000  1
  Sn  Sn3  1  0.74999989  0.24999988  0.50000000  1
