# generated using pymatgen
data_CaBeRu2
_symmetry_space_group_name_H-M   'P 1'
_cell_length_a   3.01895276
_cell_length_b   3.01895276
_cell_length_c   6.89403755
_cell_angle_alpha   90.00000000
_cell_angle_beta   90.00000000
_cell_angle_gamma   90.00000000
_symmetry_Int_Tables_number   1
_chemical_formula_structural   CaBeRu2
_chemical_formula_sum   'Ca1 Be1 Ru2'
_cell_volume   62.83278048
_cell_formula_units_Z   1
loop_
 _symmetry_equiv_pos_site_id
 _symmetry_equiv_pos_as_xyz
  1  'x, y, z'
loop_
 _atom_site_type_symbol
 _atom_site_label
 _atom_site_symmetry_multiplicity
 _atom_site_fract_x
 _atom_site_fract_y
 _atom_site_fract_z
 _atom_site_occupancy
  Ca  Ca0  1  0.49999954  0.49999954  0.74336586  1
  Be  Be1  1  0.00000000  0.00000000  0.41662716  1
  Ru  Ru2  1  0.00000000  0.00000000  0.05386470  1
  Ru  Ru3  1  0.49999954  0.49999954  0.28614281  1
