# generated using pymatgen
data_La3In4Ge
_symmetry_space_group_name_H-M   'P 1'
_cell_length_a   8.67151558
_cell_length_b   8.67151558
_cell_length_c   8.67151558
_cell_angle_alpha   119.73442640
_cell_angle_beta   119.73442640
_cell_angle_gamma   90.46060577
_symmetry_Int_Tables_number   1
_chemical_formula_structural   La3In4Ge
_chemical_formula_sum   'La6 In8 Ge2'
_cell_volume   462.90797468
_cell_formula_units_Z   2
loop_
 _symmetry_equiv_pos_site_id
 _symmetry_equiv_pos_as_xyz
  1  'x, y, z'
loop_
 _atom_site_type_symbol
 _atom_site_label
 _atom_site_symmetry_multiplicity
 _atom_site_fract_x
 _atom_site_fract_y
 _atom_site_fract_z
 _atom_site_occupancy
  La  La0  1  0.24999994  0.24999994  0.00000000  1
  La  La1  1  0.74999983  0.74999983  0.00000000  1
  La  La2  1  0.66472933  0.83527039  0.49999994  1
  La  La3  1  0.33527050  0.16472944  0.49999994  1
  La  La4  1  0.83527039  0.33527044  0.17054106  1
  La  La5  1  0.16472944  0.66472939  0.82945883  1
  In  In6  1  0.03985741  0.82524487  0.49999994  1
  In  In7  1  0.32524492  0.53985736  0.49999994  1
  In  In8  1  0.82524487  0.32524492  0.78538745  1
  In  In9  1  0.53985736  0.03985741  0.21461244  1
  In  In10  1  0.46014247  0.96014241  0.78538745  1
  In  In11  1  0.17475496  0.67475490  0.21461244  1
  In  In12  1  0.67475490  0.46014247  0.49999994  1
  In  In13  1  0.96014241  0.17475496  0.49999994  1
  Ge  Ge14  1  0.00000000  0.00000000  0.00000000  1
  Ge  Ge15  1  0.49999988  0.49999988  0.00000000  1
