# generated using pymatgen
data_BeGaOs2
_symmetry_space_group_name_H-M   'P 1'
_cell_length_a   4.59639205
_cell_length_b   4.59639205
_cell_length_c   4.59639205
_cell_angle_alpha   131.53315068
_cell_angle_beta   131.53315068
_cell_angle_gamma   70.96737160
_symmetry_Int_Tables_number   1
_chemical_formula_structural   BeGaOs2
_chemical_formula_sum   'Be1 Ga1 Os2'
_cell_volume   53.28643204
_cell_formula_units_Z   1
loop_
 _symmetry_equiv_pos_site_id
 _symmetry_equiv_pos_as_xyz
  1  'x, y, z'
loop_
 _atom_site_type_symbol
 _atom_site_label
 _atom_site_symmetry_multiplicity
 _atom_site_fract_x
 _atom_site_fract_y
 _atom_site_fract_z
 _atom_site_occupancy
  Be  Be0  1  0.49999947  0.49999947  0.00000000  1
  Ga  Ga1  1  0.74999910  0.24999974  0.49999936  1
  Os  Os2  1  0.00000000  0.00000000  0.00000000  1
  Os  Os3  1  0.24999974  0.74999910  0.49999936  1
