# generated using pymatgen
data_NaZrBe
_symmetry_space_group_name_H-M   'P 1'
_cell_length_a   2.94715570
_cell_length_b   2.94715570
_cell_length_c   7.95646770
_cell_angle_alpha   90.00000000
_cell_angle_beta   90.00000000
_cell_angle_gamma   120.00000062
_symmetry_Int_Tables_number   1
_chemical_formula_structural   NaZrBe
_chemical_formula_sum   'Na1 Zr1 Be1'
_cell_volume   59.84902707
_cell_formula_units_Z   1
loop_
 _symmetry_equiv_pos_site_id
 _symmetry_equiv_pos_as_xyz
  1  'x, y, z'
loop_
 _atom_site_type_symbol
 _atom_site_label
 _atom_site_symmetry_multiplicity
 _atom_site_fract_x
 _atom_site_fract_y
 _atom_site_fract_z
 _atom_site_occupancy
  Na  Na0  1  0.66666762  0.33333385  0.30819489  1
  Zr  Zr1  1  0.33333385  0.66666762  0.70749961  1
  Be  Be2  1  0.00000000  0.00000000  0.98430608  1
