# generated using pymatgen
data_HfCo3B2
_symmetry_space_group_name_H-M   'P 1'
_cell_length_a   5.69066143
_cell_length_b   5.69066143
_cell_length_c   5.69066094
_cell_angle_alpha   94.56290453
_cell_angle_beta   94.56290453
_cell_angle_gamma   94.56291260
_symmetry_Int_Tables_number   1
_chemical_formula_structural   HfCo3B2
_chemical_formula_sum   'Hf3 Co9 B6'
_cell_volume   182.43271949
_cell_formula_units_Z   3
loop_
 _symmetry_equiv_pos_site_id
 _symmetry_equiv_pos_as_xyz
  1  'x, y, z'
loop_
 _atom_site_type_symbol
 _atom_site_label
 _atom_site_symmetry_multiplicity
 _atom_site_fract_x
 _atom_site_fract_y
 _atom_site_fract_z
 _atom_site_occupancy
  Hf  Hf0  1  0.32962101  0.32962101  0.32962043  1
  Hf  Hf1  1  0.00000000  0.00000000  0.00000000  1
  Hf  Hf2  1  0.67037912  0.67037912  0.67037794  1
  Co  Co3  1  0.30470914  0.80258477  0.30469688  1
  Co  Co4  1  0.30469773  0.30470907  0.80258406  1
  Co  Co5  1  0.80258477  0.30469781  0.30470821  1
  Co  Co6  1  0.69529100  0.19741537  0.69530150  1
  Co  Co7  1  0.69530240  0.69529107  0.19741431  1
  Co  Co8  1  0.19741537  0.69530233  0.69529016  1
  Co  Co9  1  0.49999998  0.00000008  -0.00000031  1
  Co  Co10  1  0.00000001  0.00000001  0.49999981  1
  Co  Co11  1  0.00000008  0.49999998  -0.00000031  1
  B  B12  1  0.62205460  -0.00000134  0.37794582  1
  B  B13  1  0.37794643  0.62205466  -0.00000207  1
  B  B14  1  -0.00000137  0.37794634  0.62205415  1
  B  B15  1  0.37794537  0.00000152  0.62205318  1
  B  B16  1  0.62205368  0.37794546  0.00000083  1
  B  B17  1  0.00000156  0.62205363  0.37794485  1
