# generated using pymatgen
data_Sc2BeRh
_symmetry_space_group_name_H-M   'P 1'
_cell_length_a   3.08582387
_cell_length_b   3.08582387
_cell_length_c   7.05137967
_cell_angle_alpha   90.00000000
_cell_angle_beta   90.00000000
_cell_angle_gamma   90.00000000
_symmetry_Int_Tables_number   1
_chemical_formula_structural   Sc2BeRh
_chemical_formula_sum   'Sc2 Be1 Rh1'
_cell_volume   67.14541574
_cell_formula_units_Z   1
loop_
 _symmetry_equiv_pos_site_id
 _symmetry_equiv_pos_as_xyz
  1  'x, y, z'
loop_
 _atom_site_type_symbol
 _atom_site_label
 _atom_site_symmetry_multiplicity
 _atom_site_fract_x
 _atom_site_fract_y
 _atom_site_fract_z
 _atom_site_occupancy
  Sc  Sc0  1  0.00000000  0.00000000  0.94930652  1
  Sc  Sc1  1  0.49999937  0.49999937  0.30422141  1
  Be  Be2  1  0.00000000  0.00000000  0.55687018  1
  Rh  Rh3  1  0.49999937  0.49999937  0.68960100  1
