# generated using pymatgen
data_Hf6Al16Co7
_symmetry_space_group_name_H-M   'P 1'
_cell_length_a   8.47919280
_cell_length_b   8.47919280
_cell_length_c   8.47919280
_cell_angle_alpha   60.00000000
_cell_angle_beta   60.00000000
_cell_angle_gamma   60.00000000
_symmetry_Int_Tables_number   1
_chemical_formula_structural   Hf6Al16Co7
_chemical_formula_sum   'Hf6 Al16 Co7'
_cell_volume   431.07072898
_cell_formula_units_Z   1
loop_
 _symmetry_equiv_pos_site_id
 _symmetry_equiv_pos_as_xyz
  1  'x, y, z'
loop_
 _atom_site_type_symbol
 _atom_site_label
 _atom_site_symmetry_multiplicity
 _atom_site_fract_x
 _atom_site_fract_y
 _atom_site_fract_z
 _atom_site_occupancy
  Hf  Hf0  1  0.68980894  0.31019027  0.68980894  1
  Hf  Hf1  1  0.68980894  0.31019027  0.31019027  1
  Hf  Hf2  1  0.31019027  0.68980894  0.68980894  1
  Hf  Hf3  1  0.31019027  0.31019027  0.68980894  1
  Hf  Hf4  1  0.68980894  0.68980894  0.31019027  1
  Hf  Hf5  1  0.31019027  0.68980894  0.31019027  1
  Al  Al6  1  0.00711367  0.66429492  0.66429492  1
  Al  Al7  1  0.66429492  0.00711367  0.66429492  1
  Al  Al8  1  0.66429492  0.66429492  0.66429492  1
  Al  Al9  1  0.99288554  0.33570429  0.33570429  1
  Al  Al10  1  0.11830229  0.64509235  0.11830229  1
  Al  Al11  1  0.33570429  0.33570429  0.33570429  1
  Al  Al12  1  0.11830229  0.11830229  0.11830229  1
  Al  Al13  1  0.11830229  0.11830229  0.64509235  1
  Al  Al14  1  0.64509235  0.11830229  0.11830229  1
  Al  Al15  1  0.88169692  0.88169692  0.88169692  1
  Al  Al16  1  0.33570429  0.33570429  0.99288554  1
  Al  Al17  1  0.66429492  0.66429492  0.00711367  1
  Al  Al18  1  0.88169692  0.35490686  0.88169692  1
  Al  Al19  1  0.88169692  0.88169692  0.35490686  1
  Al  Al20  1  0.35490686  0.88169692  0.88169692  1
  Al  Al21  1  0.33570429  0.99288554  0.33570429  1
  Co  Co22  1  0.00000000  0.00000000  0.49999961  1
  Co  Co23  1  0.00000000  0.00000000  0.00000000  1
  Co  Co24  1  0.49999961  0.00000000  -0.00000000  1
  Co  Co25  1  0.00000000  0.49999961  -0.00000000  1
  Co  Co26  1  0.49999961  0.00000000  0.49999961  1
  Co  Co27  1  0.49999961  0.49999961  -0.00000000  1
  Co  Co28  1  0.00000000  0.49999961  0.49999961  1
