# generated using pymatgen
data_CaBeGa
_symmetry_space_group_name_H-M   'P 1'
_cell_length_a   5.82985008
_cell_length_b   5.82985008
_cell_length_c   5.82985008
_cell_angle_alpha   147.73901086
_cell_angle_beta   147.73901086
_cell_angle_gamma   46.27078813
_symmetry_Int_Tables_number   1
_chemical_formula_structural   CaBeGa
_chemical_formula_sum   'Ca1 Be1 Ga1'
_cell_volume   56.25574168
_cell_formula_units_Z   1
loop_
 _symmetry_equiv_pos_site_id
 _symmetry_equiv_pos_as_xyz
  1  'x, y, z'
loop_
 _atom_site_type_symbol
 _atom_site_label
 _atom_site_symmetry_multiplicity
 _atom_site_fract_x
 _atom_site_fract_y
 _atom_site_fract_z
 _atom_site_occupancy
  Ca  Ca0  1  0.33732057  0.33732057  0.00000000  1
  Be  Be1  1  0.03106671  0.03106671  0.00000000  1
  Ga  Ga2  1  0.63161220  0.63161220  0.00000000  1
