# generated using pymatgen
data_MnNiP
_symmetry_space_group_name_H-M   'P 1'
_cell_length_a   3.45811980
_cell_length_b   5.85683731
_cell_length_c   6.75016170
_cell_angle_alpha   90.00000000
_cell_angle_beta   90.00000000
_cell_angle_gamma   90.00000000
_symmetry_Int_Tables_number   1
_chemical_formula_structural   MnNiP
_chemical_formula_sum   'Mn4 Ni4 P4'
_cell_volume   136.71537903
_cell_formula_units_Z   4
loop_
 _symmetry_equiv_pos_site_id
 _symmetry_equiv_pos_as_xyz
  1  'x, y, z'
loop_
 _atom_site_type_symbol
 _atom_site_label
 _atom_site_symmetry_multiplicity
 _atom_site_fract_x
 _atom_site_fract_y
 _atom_site_fract_z
 _atom_site_occupancy
  Mn  Mn0  1  0.25000001  0.03267845  0.15917624  1
  Mn  Mn1  1  0.75000004  0.46732178  0.65917611  1
  Mn  Mn2  1  0.75000004  0.96732201  0.84082351  1
  Mn  Mn3  1  0.25000001  0.53267868  0.34082364  1
  Ni  Ni4  1  0.25000001  0.13779601  0.56621235  1
  Ni  Ni5  1  0.75000004  0.36220422  0.06621248  1
  Ni  Ni6  1  0.75000004  0.86220445  0.43378740  1
  Ni  Ni7  1  0.25000001  0.63779624  0.93378727  1
  P  P8  1  0.25000001  0.75686266  0.62749913  1
  P  P9  1  0.75000004  0.74313803  0.12749926  1
  P  P10  1  0.75000004  0.24313780  0.37250062  1
  P  P11  1  0.25000001  0.25686243  0.87250049  1
