# generated using pymatgen
data_Si3Mo5
_symmetry_space_group_name_H-M   'P 1'
_cell_length_a   7.30729504
_cell_length_b   7.30729504
_cell_length_c   5.07815017
_cell_angle_alpha   90.00000000
_cell_angle_beta   90.00000000
_cell_angle_gamma   119.99987800
_symmetry_Int_Tables_number   1
_chemical_formula_structural   Si3Mo5
_chemical_formula_sum   'Si6 Mo10'
_cell_volume   234.82806023
_cell_formula_units_Z   2
loop_
 _symmetry_equiv_pos_site_id
 _symmetry_equiv_pos_as_xyz
  1  'x, y, z'
loop_
 _atom_site_type_symbol
 _atom_site_label
 _atom_site_symmetry_multiplicity
 _atom_site_fract_x
 _atom_site_fract_y
 _atom_site_fract_z
 _atom_site_occupancy
  Si  Si0  1  0.60632330  0.99999829  0.24999999  1
  Si  Si1  1  0.99999829  0.60632330  0.24999999  1
  Si  Si2  1  0.39367842  0.39367842  0.24999999  1
  Si  Si3  1  0.39367554  0.00000055  0.74999997  1
  Si  Si4  1  0.00000055  0.39367554  0.74999997  1
  Si  Si5  1  0.60632042  0.60632042  0.74999997  1
  Mo  Mo6  1  0.33333218  0.66666665  0.00000000  1
  Mo  Mo7  1  0.66666665  0.33333218  0.49999998  1
  Mo  Mo8  1  0.66666665  0.33333218  0.00000000  1
  Mo  Mo9  1  0.33333218  0.66666665  0.49999998  1
  Mo  Mo10  1  0.23862426  0.00000157  0.24999999  1
  Mo  Mo11  1  0.00000157  0.23862426  0.24999999  1
  Mo  Mo12  1  0.76137545  0.76137545  0.24999999  1
  Mo  Mo13  1  0.76137458  0.99999726  0.74999997  1
  Mo  Mo14  1  0.99999726  0.76137458  0.74999997  1
  Mo  Mo15  1  0.23862338  0.23862338  0.74999997  1
