# generated using pymatgen
data_BeCoPd2
_symmetry_space_group_name_H-M   'P 1'
_cell_length_a   2.72569119
_cell_length_b   2.72569119
_cell_length_c   6.56792675
_cell_angle_alpha   90.00000000
_cell_angle_beta   90.00000000
_cell_angle_gamma   90.00000000
_symmetry_Int_Tables_number   1
_chemical_formula_structural   BeCoPd2
_chemical_formula_sum   'Be1 Co1 Pd2'
_cell_volume   48.79570556
_cell_formula_units_Z   1
loop_
 _symmetry_equiv_pos_site_id
 _symmetry_equiv_pos_as_xyz
  1  'x, y, z'
loop_
 _atom_site_type_symbol
 _atom_site_label
 _atom_site_symmetry_multiplicity
 _atom_site_fract_x
 _atom_site_fract_y
 _atom_site_fract_z
 _atom_site_occupancy
  Be  Be0  1  0.00000000  0.00000000  0.51329463  1
  Co  Co1  1  0.49999978  0.49999978  0.71073955  1
  Pd  Pd2  1  0.00000000  0.00000000  0.97648314  1
  Pd  Pd3  1  0.49999978  0.49999978  0.29948491  1
