# generated using pymatgen
data_S(OF)2
_symmetry_space_group_name_H-M   'P 1'
_cell_length_a   5.11214208
_cell_length_b   5.11214208
_cell_length_c   10.78152073
_cell_angle_alpha   90.00000000
_cell_angle_beta   90.00000000
_cell_angle_gamma   90.00000000
_symmetry_Int_Tables_number   1
_chemical_formula_structural   S(OF)2
_chemical_formula_sum   'S4 O8 F8'
_cell_volume   281.76422689
_cell_formula_units_Z   4
loop_
 _symmetry_equiv_pos_site_id
 _symmetry_equiv_pos_as_xyz
  1  'x, y, z'
loop_
 _atom_site_type_symbol
 _atom_site_label
 _atom_site_symmetry_multiplicity
 _atom_site_fract_x
 _atom_site_fract_y
 _atom_site_fract_z
 _atom_site_occupancy
  S  S0  1  0.57810697  0.42189262  0.74999995  1
  S  S1  1  0.92189242  0.92189242  0.49999997  1
  S  S2  1  0.07810717  0.07810717  0.00000000  1
  S  S3  1  0.42189262  0.57810697  0.24999998  1
  O  O4  1  0.99382322  0.66916332  0.45894428  1
  O  O5  1  0.00617637  0.33083627  0.95894425  1
  O  O6  1  0.83083606  0.49382342  0.70894426  1
  O  O7  1  0.16916353  0.50617617  0.20894430  1
  O  O8  1  0.50617617  0.16916353  0.79105563  1
  O  O9  1  0.49382342  0.83083606  0.29105567  1
  O  O10  1  0.66916332  0.99382322  0.54105565  1
  O  O11  1  0.33083627  0.00617637  0.04105569  1
  F  F12  1  0.01170105  0.12314132  0.39849307  1
  F  F13  1  0.98829854  0.87685827  0.89849304  1
  F  F14  1  0.37685848  0.51170085  0.64849306  1
  F  F15  1  0.62314111  0.48829874  0.14849309  1
  F  F16  1  0.48829874  0.62314111  0.85150684  1
  F  F17  1  0.51170085  0.37685848  0.35150688  1
  F  F18  1  0.12314132  0.01170105  0.60150686  1
  F  F19  1  0.87685827  0.98829854  0.10150689  1
