# generated using pymatgen
data_YBe2Cr
_symmetry_space_group_name_H-M   'P 1'
_cell_length_a   4.86446726
_cell_length_b   4.86446726
_cell_length_c   4.86446726
_cell_angle_alpha   134.06790678
_cell_angle_beta   134.06790678
_cell_angle_gamma   66.98196333
_symmetry_Int_Tables_number   1
_chemical_formula_structural   YBe2Cr
_chemical_formula_sum   'Y1 Be2 Cr1'
_cell_volume   58.46017100
_cell_formula_units_Z   1
loop_
 _symmetry_equiv_pos_site_id
 _symmetry_equiv_pos_as_xyz
  1  'x, y, z'
loop_
 _atom_site_type_symbol
 _atom_site_label
 _atom_site_symmetry_multiplicity
 _atom_site_fract_x
 _atom_site_fract_y
 _atom_site_fract_z
 _atom_site_occupancy
  Y  Y0  1  0.74999853  0.24999983  0.49999870  1
  Be  Be1  1  0.00000000  0.00000000  0.00000000  1
  Be  Be2  1  0.24999983  0.74999853  0.49999870  1
  Cr  Cr3  1  0.49999965  0.49999965  0.00000000  1
