# generated using pymatgen
data_BeTcIr2
_symmetry_space_group_name_H-M   'P 1'
_cell_length_a   4.71924959
_cell_length_b   4.71924959
_cell_length_c   4.71924959
_cell_angle_alpha   133.90985821
_cell_angle_beta   133.90985821
_cell_angle_gamma   67.22883536
_symmetry_Int_Tables_number   1
_chemical_formula_structural   BeTcIr2
_chemical_formula_sum   'Be1 Tc1 Ir2'
_cell_volume   53.65053711
_cell_formula_units_Z   1
loop_
 _symmetry_equiv_pos_site_id
 _symmetry_equiv_pos_as_xyz
  1  'x, y, z'
loop_
 _atom_site_type_symbol
 _atom_site_label
 _atom_site_symmetry_multiplicity
 _atom_site_fract_x
 _atom_site_fract_y
 _atom_site_fract_z
 _atom_site_occupancy
  Be  Be0  1  0.74999908  0.25000026  0.49999882  1
  Tc  Tc1  1  0.50000052  0.50000052  0.00000000  1
  Ir  Ir2  1  0.00000000  0.00000000  0.00000000  1
  Ir  Ir3  1  0.25000026  0.74999908  0.49999882  1
