# generated using pymatgen
data_PrAsS
_symmetry_space_group_name_H-M   'P 1'
_cell_length_a   17.65709572
_cell_length_b   4.01725979
_cell_length_c   3.95482225
_cell_angle_alpha   90.00002149
_cell_angle_beta   90.00000000
_cell_angle_gamma   90.00000000
_symmetry_Int_Tables_number   1
_chemical_formula_structural   PrAsS
_chemical_formula_sum   'Pr4 As4 S4'
_cell_volume   280.52796297
_cell_formula_units_Z   4
loop_
 _symmetry_equiv_pos_site_id
 _symmetry_equiv_pos_as_xyz
  1  'x, y, z'
loop_
 _atom_site_type_symbol
 _atom_site_label
 _atom_site_symmetry_multiplicity
 _atom_site_fract_x
 _atom_site_fract_y
 _atom_site_fract_z
 _atom_site_occupancy
  Pr  Pr0  1  0.35410258  0.73143500  0.24998910  1
  Pr  Pr1  1  0.85410270  0.76856388  0.25001120  1
  Pr  Pr2  1  0.64589767  0.26856419  0.75001179  1
  Pr  Pr3  1  0.14589755  0.23143531  0.74998969  1
  As  As4  1  0.00188740  0.70834990  0.75000945  1
  As  As5  1  0.50188752  0.79164889  0.74999188  1
  As  As6  1  0.99811285  0.29164929  0.24999144  1
  As  As7  1  0.49811273  0.20835030  0.25000901  1
  S  S8  1  0.18662631  0.73404183  0.24998820  1
  S  S9  1  0.68662643  0.76595705  0.25001210  1
  S  S10  1  0.81337393  0.26595736  0.75001269  1
  S  S11  1  0.31337381  0.23404214  0.74998879  1
