# generated using pymatgen
data_BeGa4Sb
_symmetry_space_group_name_H-M   'P 1'
_cell_length_a   5.56716062
_cell_length_b   5.56716062
_cell_length_c   5.56716062
_cell_angle_alpha   60.00000000
_cell_angle_beta   60.00000000
_cell_angle_gamma   60.00000000
_symmetry_Int_Tables_number   1
_chemical_formula_structural   BeGa4Sb
_chemical_formula_sum   'Be1 Ga4 Sb1'
_cell_volume   122.00742353
_cell_formula_units_Z   1
loop_
 _symmetry_equiv_pos_site_id
 _symmetry_equiv_pos_as_xyz
  1  'x, y, z'
loop_
 _atom_site_type_symbol
 _atom_site_label
 _atom_site_symmetry_multiplicity
 _atom_site_fract_x
 _atom_site_fract_y
 _atom_site_fract_z
 _atom_site_occupancy
  Be  Be0  1  0.00000000  0.00000000  0.00000000  1
  Ga  Ga1  1  0.12277714  0.62574112  0.62574112  1
  Ga  Ga2  1  0.62574112  0.62574112  0.62574112  1
  Ga  Ga3  1  0.62574112  0.12277714  0.62574112  1
  Ga  Ga4  1  0.62574112  0.62574112  0.12277714  1
  Sb  Sb5  1  0.25000019  0.25000019  0.25000019  1
