# generated using pymatgen
data_LaGe
_symmetry_space_group_name_H-M   'P 1'
_cell_length_a   4.16091243
_cell_length_b   6.10542017
_cell_length_c   8.49043886
_cell_angle_alpha   90.00000000
_cell_angle_beta   90.00000000
_cell_angle_gamma   90.00000000
_symmetry_Int_Tables_number   1
_chemical_formula_structural   LaGe
_chemical_formula_sum   'La4 Ge4'
_cell_volume   215.69211658
_cell_formula_units_Z   4
loop_
 _symmetry_equiv_pos_site_id
 _symmetry_equiv_pos_as_xyz
  1  'x, y, z'
loop_
 _atom_site_type_symbol
 _atom_site_label
 _atom_site_symmetry_multiplicity
 _atom_site_fract_x
 _atom_site_fract_y
 _atom_site_fract_z
 _atom_site_occupancy
  La  La0  1  0.74999956  0.88248616  0.18161720  1
  La  La1  1  0.24999985  0.38248618  0.31838287  1
  La  La2  1  0.24999985  0.11751381  0.81838294  1
  La  La3  1  0.74999956  0.61751379  0.68161726  1
  Ge  Ge4  1  0.74999956  0.36502752  0.03739048  1
  Ge  Ge5  1  0.24999985  0.86502750  0.46260959  1
  Ge  Ge6  1  0.24999985  0.63497245  0.96260965  1
  Ge  Ge7  1  0.74999956  0.13497247  0.53739055  1
