# generated using pymatgen
data_Sr2Cu3(SO)2
_symmetry_space_group_name_H-M   'P 1'
_cell_length_a   9.57009740
_cell_length_b   9.57009740
_cell_length_c   9.57009740
_cell_angle_alpha   156.29244165
_cell_angle_beta   156.29244165
_cell_angle_gamma   33.77582424
_symmetry_Int_Tables_number   1
_chemical_formula_structural   Sr2Cu3(SO)2
_chemical_formula_sum   'Sr2 Cu3 S2 O2'
_cell_volume   141.55573665
_cell_formula_units_Z   1
loop_
 _symmetry_equiv_pos_site_id
 _symmetry_equiv_pos_as_xyz
  1  'x, y, z'
loop_
 _atom_site_type_symbol
 _atom_site_label
 _atom_site_symmetry_multiplicity
 _atom_site_fract_x
 _atom_site_fract_y
 _atom_site_fract_z
 _atom_site_occupancy
  Sr  Sr0  1  0.40879793  0.40879793  0.00000000  1
  Sr  Sr1  1  0.59120252  0.59120252  0.00000000  1
  Cu  Cu2  1  0.00000000  0.00000000  0.00000000  1
  Cu  Cu3  1  0.25000011  0.75000032  0.50000021  1
  Cu  Cu4  1  0.75000032  0.25000011  0.50000021  1
  S  S5  1  0.82722336  0.82722336  0.00000000  1
  S  S6  1  0.17277709  0.17277709  0.00000000  1
  O  O7  1  0.50000021  0.00000000  0.50000021  1
  O  O8  1  0.00000000  0.50000021  0.50000021  1
