# generated using pymatgen
data_TiBeMo
_symmetry_space_group_name_H-M   'P 1'
_cell_length_a   2.71682065
_cell_length_b   2.71682065
_cell_length_c   6.73671087
_cell_angle_alpha   90.00000000
_cell_angle_beta   90.00000000
_cell_angle_gamma   119.99998318
_symmetry_Int_Tables_number   1
_chemical_formula_structural   TiBeMo
_chemical_formula_sum   'Ti1 Be1 Mo1'
_cell_volume   43.06263038
_cell_formula_units_Z   1
loop_
 _symmetry_equiv_pos_site_id
 _symmetry_equiv_pos_as_xyz
  1  'x, y, z'
loop_
 _atom_site_type_symbol
 _atom_site_label
 _atom_site_symmetry_multiplicity
 _atom_site_fract_x
 _atom_site_fract_y
 _atom_site_fract_z
 _atom_site_occupancy
  Ti  Ti0  1  0.33333243  0.66666707  0.68326394  1
  Be  Be1  1  0.00000000  0.00000000  0.00491239  1
  Mo  Mo2  1  0.66666707  0.33333243  0.31182354  1
