# generated using pymatgen
data_CN2
_symmetry_space_group_name_H-M   'P 1'
_cell_length_a   4.89300071
_cell_length_b   4.89300071
_cell_length_c   4.89300071
_cell_angle_alpha   97.09601406
_cell_angle_beta   97.09601406
_cell_angle_gamma   138.84527037
_symmetry_Int_Tables_number   1
_chemical_formula_structural   CN2
_chemical_formula_sum   'C4 N8'
_cell_volume   72.17423507
_cell_formula_units_Z   4
loop_
 _symmetry_equiv_pos_site_id
 _symmetry_equiv_pos_as_xyz
  1  'x, y, z'
loop_
 _atom_site_type_symbol
 _atom_site_label
 _atom_site_symmetry_multiplicity
 _atom_site_fract_x
 _atom_site_fract_y
 _atom_site_fract_z
 _atom_site_occupancy
  C  C0  1  0.87500017  0.18193193  0.80693237  1
  C  C1  1  0.37499996  0.06806779  0.19306803  1
  C  C2  1  0.81806772  0.62499969  0.69306823  1
  C  C3  1  0.93193186  0.12499949  0.30693217  1
  N  N4  1  0.59714632  0.71653889  0.74249622  1
  N  N5  1  0.97404232  0.85464975  0.25750418  1
  N  N6  1  0.28346151  0.02595733  0.88060783  1
  N  N7  1  0.14534916  0.40285334  0.11939257  1
  N  N8  1  0.77595652  0.53346050  0.38060763  1
  N  N9  1  0.15285361  0.39534963  0.61939277  1
  N  N10  1  0.60465077  0.22404314  0.75750438  1
  N  N11  1  0.46653841  0.84714605  0.24249602  1
