# generated using pymatgen
data_Ba4HfMo
_symmetry_space_group_name_H-M   'P 1'
_cell_length_a   6.71812596
_cell_length_b   6.71812596
_cell_length_c   6.71812596
_cell_angle_alpha   60.00000000
_cell_angle_beta   60.00000000
_cell_angle_gamma   60.00000000
_symmetry_Int_Tables_number   1
_chemical_formula_structural   Ba4HfMo
_chemical_formula_sum   'Ba4 Hf1 Mo1'
_cell_volume   214.40229490
_cell_formula_units_Z   1
loop_
 _symmetry_equiv_pos_site_id
 _symmetry_equiv_pos_as_xyz
  1  'x, y, z'
loop_
 _atom_site_type_symbol
 _atom_site_label
 _atom_site_symmetry_multiplicity
 _atom_site_fract_x
 _atom_site_fract_y
 _atom_site_fract_z
 _atom_site_occupancy
  Ba  Ba0  1  0.12404117  0.62531960  0.62531960  1
  Ba  Ba1  1  0.62531960  0.62531960  0.62531960  1
  Ba  Ba2  1  0.62531960  0.12404117  0.62531960  1
  Ba  Ba3  1  0.62531960  0.62531960  0.12404117  1
  Hf  Hf4  1  0.24999987  0.24999987  0.24999987  1
  Mo  Mo5  1  0.00000000  0.00000000  0.00000000  1
