# generated using pymatgen
data_W2N3
_symmetry_space_group_name_H-M   'P 1'
_cell_length_a   2.91776167
_cell_length_b   2.91776430
_cell_length_c   15.49442810
_cell_angle_alpha   90.00000000
_cell_angle_beta   90.00000000
_cell_angle_gamma   119.99997019
_symmetry_Int_Tables_number   1
_chemical_formula_structural   W2N3
_chemical_formula_sum   'W4 N6'
_cell_volume   114.23688028
_cell_formula_units_Z   2
loop_
 _symmetry_equiv_pos_site_id
 _symmetry_equiv_pos_as_xyz
  1  'x, y, z'
loop_
 _atom_site_type_symbol
 _atom_site_label
 _atom_site_symmetry_multiplicity
 _atom_site_fract_x
 _atom_site_fract_y
 _atom_site_fract_z
 _atom_site_occupancy
  W  W0  1  0.66666211  0.33332365  0.84493044  1
  W  W1  1  0.33333672  0.66667457  0.34493037  1
  W  W2  1  0.33333672  0.66667457  0.15506969  1
  W  W3  1  0.66666211  0.33332365  0.65506975  1
  N  N4  1  0.66666963  0.33333870  0.08290987  1
  N  N5  1  0.33332920  0.66665953  0.58290993  1
  N  N6  1  0.33332920  0.66665953  0.91709025  1
  N  N7  1  0.66666963  0.33333870  0.41709019  1
  N  N8  1  0.66667265  0.33334474  0.25000003  1
  N  N9  1  0.33332618  0.66665349  0.75000009  1
