# generated using pymatgen
data_BeMo4Se
_symmetry_space_group_name_H-M   'P 1'
_cell_length_a   5.22282914
_cell_length_b   5.22282914
_cell_length_c   5.22282914
_cell_angle_alpha   60.00000000
_cell_angle_beta   60.00000000
_cell_angle_gamma   60.00000000
_symmetry_Int_Tables_number   1
_chemical_formula_structural   BeMo4Se
_chemical_formula_sum   'Be1 Mo4 Se1'
_cell_volume   100.74011864
_cell_formula_units_Z   1
loop_
 _symmetry_equiv_pos_site_id
 _symmetry_equiv_pos_as_xyz
  1  'x, y, z'
loop_
 _atom_site_type_symbol
 _atom_site_label
 _atom_site_symmetry_multiplicity
 _atom_site_fract_x
 _atom_site_fract_y
 _atom_site_fract_z
 _atom_site_occupancy
  Be  Be0  1  0.00000000  0.00000000  0.00000000  1
  Mo  Mo1  1  0.12401339  0.62532958  0.62532958  1
  Mo  Mo2  1  0.62532958  0.62532958  0.62532958  1
  Mo  Mo3  1  0.62532958  0.12401339  0.62532958  1
  Mo  Mo4  1  0.62532958  0.62532958  0.12401339  1
  Se  Se5  1  0.25000014  0.25000014  0.25000014  1
