# generated using pymatgen
data_YBe2Sb
_symmetry_space_group_name_H-M   'P 1'
_cell_length_a   5.48293655
_cell_length_b   5.48293655
_cell_length_c   5.48293655
_cell_angle_alpha   137.49042055
_cell_angle_beta   137.49042055
_cell_angle_gamma   61.68434631
_symmetry_Int_Tables_number   1
_chemical_formula_structural   YBe2Sb
_chemical_formula_sum   'Y1 Be2 Sb1'
_cell_volume   74.39368282
_cell_formula_units_Z   1
loop_
 _symmetry_equiv_pos_site_id
 _symmetry_equiv_pos_as_xyz
  1  'x, y, z'
loop_
 _atom_site_type_symbol
 _atom_site_label
 _atom_site_symmetry_multiplicity
 _atom_site_fract_x
 _atom_site_fract_y
 _atom_site_fract_z
 _atom_site_occupancy
  Y  Y0  1  0.74999925  0.24999974  0.49999951  1
  Be  Be1  1  0.00000000  0.00000000  0.00000000  1
  Be  Be2  1  0.24999974  0.74999925  0.49999951  1
  Sb  Sb3  1  0.49999948  0.49999948  0.00000000  1
