# generated using pymatgen
data_LiBeFe4
_symmetry_space_group_name_H-M   'P 1'
_cell_length_a   4.63230551
_cell_length_b   4.63230551
_cell_length_c   4.63230551
_cell_angle_alpha   60.00000000
_cell_angle_beta   60.00000000
_cell_angle_gamma   60.00000000
_symmetry_Int_Tables_number   1
_chemical_formula_structural   LiBeFe4
_chemical_formula_sum   'Li1 Be1 Fe4'
_cell_volume   70.28725557
_cell_formula_units_Z   1
loop_
 _symmetry_equiv_pos_site_id
 _symmetry_equiv_pos_as_xyz
  1  'x, y, z'
loop_
 _atom_site_type_symbol
 _atom_site_label
 _atom_site_symmetry_multiplicity
 _atom_site_fract_x
 _atom_site_fract_y
 _atom_site_fract_z
 _atom_site_occupancy
  Li  Li0  1  0.24999965  0.24999965  0.24999965  1
  Be  Be1  1  0.00000000  0.00000000  0.00000000  1
  Fe  Fe2  1  0.12461685  0.62512644  0.62512644  1
  Fe  Fe3  1  0.62512644  0.62512644  0.62512644  1
  Fe  Fe4  1  0.62512644  0.12461685  0.62512644  1
  Fe  Fe5  1  0.62512644  0.62512644  0.12461685  1
