# generated using pymatgen
data_LiBeGe
_symmetry_space_group_name_H-M   'P 1'
_cell_length_a   6.10203455
_cell_length_b   6.10203455
_cell_length_c   6.10203455
_cell_angle_alpha   154.18214158
_cell_angle_beta   154.18214158
_cell_angle_gamma   36.83491937
_symmetry_Int_Tables_number   1
_chemical_formula_structural   LiBeGe
_chemical_formula_sum   'Li1 Be1 Ge1'
_cell_volume   43.03517833
_cell_formula_units_Z   1
loop_
 _symmetry_equiv_pos_site_id
 _symmetry_equiv_pos_as_xyz
  1  'x, y, z'
loop_
 _atom_site_type_symbol
 _atom_site_label
 _atom_site_symmetry_multiplicity
 _atom_site_fract_x
 _atom_site_fract_y
 _atom_site_fract_z
 _atom_site_occupancy
  Li  Li0  1  0.65639981  0.65639981  0.00000000  1
  Be  Be1  1  0.99426881  0.99426881  0.00000000  1
  Ge  Ge2  1  0.34933142  0.34933142  0.00000000  1
