# generated using pymatgen
data_NaCrF6
_symmetry_space_group_name_H-M   'P 1'
_cell_length_a   5.57964692
_cell_length_b   5.57814406
_cell_length_c   5.57888355
_cell_angle_alpha   53.48490901
_cell_angle_beta   53.48523238
_cell_angle_gamma   53.47904631
_symmetry_Int_Tables_number   1
_chemical_formula_structural   NaCrF6
_chemical_formula_sum   'Na1 Cr1 F6'
_cell_volume   104.05621545
_cell_formula_units_Z   1
loop_
 _symmetry_equiv_pos_site_id
 _symmetry_equiv_pos_as_xyz
  1  'x, y, z'
loop_
 _atom_site_type_symbol
 _atom_site_label
 _atom_site_symmetry_multiplicity
 _atom_site_fract_x
 _atom_site_fract_y
 _atom_site_fract_z
 _atom_site_occupancy
  Na  Na0  1  0.49999876  0.49999993  0.50001221  1
  Cr  Cr1  1  -0.00000000  -0.00000272  0.00001252  1
  F  F2  1  0.78965917  0.37037236  0.05726132  1
  F  F3  1  0.37014446  0.05740051  0.78976573  1
  F  F4  1  0.05729950  0.78984940  0.37024697  1
  F  F5  1  0.21033620  0.62963342  0.94276258  1
  F  F6  1  0.62985717  0.94259885  0.21025632  1
  F  F7  1  0.94269875  0.21015158  0.62977716  1
