# generated using pymatgen
data_C
_symmetry_space_group_name_H-M   'P 1'
_cell_length_a   4.26789808
_cell_length_b   4.93138354
_cell_length_c   6.70685048
_cell_angle_alpha   90.00000000
_cell_angle_beta   90.00000000
_cell_angle_gamma   90.00000000
_symmetry_Int_Tables_number   1
_chemical_formula_structural   C
_chemical_formula_sum   C16
_cell_volume   141.15668322
_cell_formula_units_Z   16
loop_
 _symmetry_equiv_pos_site_id
 _symmetry_equiv_pos_as_xyz
  1  'x, y, z'
loop_
 _atom_site_type_symbol
 _atom_site_label
 _atom_site_symmetry_multiplicity
 _atom_site_fract_x
 _atom_site_fract_y
 _atom_site_fract_z
 _atom_site_occupancy
  C  C0  1  0.08331304  0.12499938  0.24999276  1
  C  C1  1  0.91668741  0.87499991  0.24999276  1
  C  C2  1  0.91668741  0.12499938  0.75000717  1
  C  C3  1  0.08331304  0.87499991  0.75000717  1
  C  C4  1  0.41668718  0.37500027  0.75000717  1
  C  C5  1  0.58331327  0.62499902  0.75000717  1
  C  C6  1  0.58331327  0.37500027  0.24999276  1
  C  C7  1  0.41668718  0.62499902  0.24999276  1
  C  C8  1  0.41668717  0.12500015  0.24999086  1
  C  C9  1  0.58331328  0.87499913  0.24999086  1
  C  C10  1  0.58331328  0.12500015  0.75000906  1
  C  C11  1  0.41668717  0.87499913  0.75000906  1
  C  C12  1  0.08331305  0.37499949  0.75000906  1
  C  C13  1  0.91668740  0.62499979  0.75000906  1
  C  C14  1  0.91668740  0.37499949  0.24999086  1
  C  C15  1  0.08331305  0.62499979  0.24999086  1
