# generated using pymatgen
data_BaHfBi2
_symmetry_space_group_name_H-M   'P 1'
_cell_length_a   6.06567373
_cell_length_b   6.06567373
_cell_length_c   3.39665962
_cell_angle_alpha   90.00000000
_cell_angle_beta   90.00000000
_cell_angle_gamma   90.00000000
_symmetry_Int_Tables_number   1
_chemical_formula_structural   BaHfBi2
_chemical_formula_sum   'Ba1 Hf1 Bi2'
_cell_volume   124.97125197
_cell_formula_units_Z   1
loop_
 _symmetry_equiv_pos_site_id
 _symmetry_equiv_pos_as_xyz
  1  'x, y, z'
loop_
 _atom_site_type_symbol
 _atom_site_label
 _atom_site_symmetry_multiplicity
 _atom_site_fract_x
 _atom_site_fract_y
 _atom_site_fract_z
 _atom_site_occupancy
  Ba  Ba0  1  0.00000000  0.00000000  0.50000006  1
  Hf  Hf1  1  0.49999969  0.49999969  0.50000006  1
  Bi  Bi2  1  0.49999969  0.00000000  0.00000000  1
  Bi  Bi3  1  0.00000000  0.49999969  0.00000000  1
