# generated using pymatgen
data_HoHO2
_symmetry_space_group_name_H-M   'P 1'
_cell_length_a   4.19467230
_cell_length_b   3.53360973
_cell_length_c   6.67604531
_cell_angle_alpha   105.30397241
_cell_angle_beta   90.00000000
_cell_angle_gamma   90.00000000
_symmetry_Int_Tables_number   1
_chemical_formula_structural   HoHO2
_chemical_formula_sum   'Ho2 H2 O4'
_cell_volume   95.44556275
_cell_formula_units_Z   2
loop_
 _symmetry_equiv_pos_site_id
 _symmetry_equiv_pos_as_xyz
  1  'x, y, z'
loop_
 _atom_site_type_symbol
 _atom_site_label
 _atom_site_symmetry_multiplicity
 _atom_site_fract_x
 _atom_site_fract_y
 _atom_site_fract_z
 _atom_site_occupancy
  Ho  Ho0  1  0.24999986  0.66587974  0.33124435  1
  Ho  Ho1  1  0.74999959  0.33411997  0.66875507  1
  H  H2  1  0.00000000  0.00000000  0.00000000  1
  H  H3  1  0.49999973  0.00000000  0.00000000  1
  O  O4  1  0.24999986  0.05122790  0.10118857  1
  O  O5  1  0.74999959  0.94877181  0.89881086  1
  O  O6  1  0.24999986  0.28145702  0.56300984  1
  O  O7  1  0.74999959  0.71854269  0.43698959  1
