# generated using pymatgen
data_BeCN2
_symmetry_space_group_name_H-M   'P 1'
_cell_length_a   4.25654649
_cell_length_b   4.41440964
_cell_length_c   5.29743193
_cell_angle_alpha   90.00000000
_cell_angle_beta   90.00000000
_cell_angle_gamma   90.00000000
_symmetry_Int_Tables_number   1
_chemical_formula_structural   BeCN2
_chemical_formula_sum   'Be4 C4 N8'
_cell_volume   99.53948697
_cell_formula_units_Z   4
loop_
 _symmetry_equiv_pos_site_id
 _symmetry_equiv_pos_as_xyz
  1  'x, y, z'
loop_
 _atom_site_type_symbol
 _atom_site_label
 _atom_site_symmetry_multiplicity
 _atom_site_fract_x
 _atom_site_fract_y
 _atom_site_fract_z
 _atom_site_occupancy
  Be  Be0  1  0.00735690  0.08586890  0.37502397  1
  Be  Be1  1  0.50735732  0.91413118  0.62497566  1
  Be  Be2  1  0.00735690  0.58586894  0.12497585  1
  Be  Be3  1  0.50735732  0.41413114  0.87502379  1
  C  C4  1  0.00659317  0.06831091  0.87502561  1
  C  C5  1  0.50659359  0.93168917  0.12497402  1
  C  C6  1  0.00659317  0.56831095  0.62497384  1
  C  C7  1  0.50659359  0.43168913  0.37502579  1
  N  N8  1  0.65111211  0.05958876  0.89616036  1
  N  N9  1  0.15111170  0.94041132  0.10383928  1
  N  N10  1  0.65111211  0.55958881  0.60383909  1
  N  N11  1  0.15111170  0.44041128  0.39616054  1
  N  N12  1  0.60963886  0.10713525  0.35327062  1
  N  N13  1  0.10963845  0.89286483  0.64672901  1
  N  N14  1  0.60963886  0.60713529  0.14672919  1
  N  N15  1  0.10963845  0.39286479  0.85327044  1
