# generated using pymatgen
data_ThAs2
_symmetry_space_group_name_H-M   'P 1'
_cell_length_a   4.05439249
_cell_length_b   7.35748040
_cell_length_c   9.86727618
_cell_angle_alpha   90.00000000
_cell_angle_beta   90.00000000
_cell_angle_gamma   90.00000000
_symmetry_Int_Tables_number   1
_chemical_formula_structural   ThAs2
_chemical_formula_sum   'Th4 As8'
_cell_volume   294.34196584
_cell_formula_units_Z   4
loop_
 _symmetry_equiv_pos_site_id
 _symmetry_equiv_pos_as_xyz
  1  'x, y, z'
loop_
 _atom_site_type_symbol
 _atom_site_label
 _atom_site_symmetry_multiplicity
 _atom_site_fract_x
 _atom_site_fract_y
 _atom_site_fract_z
 _atom_site_occupancy
  Th  Th0  1  0.24999985  0.29704574  0.84877054  1
  Th  Th1  1  0.74999954  0.20295423  0.34877035  1
  Th  Th2  1  0.74999954  0.70295421  0.15122984  1
  Th  Th3  1  0.24999985  0.79704571  0.65123004  1
  As  As4  1  0.24999985  0.89780600  0.33767729  1
  As  As5  1  0.74999954  0.60219392  0.83767748  1
  As  As6  1  0.74999954  0.10219395  0.66232310  1
  As  As7  1  0.24999985  0.39780603  0.16232291  1
  As  As8  1  0.24999985  0.89895971  0.95668434  1
  As  As9  1  0.74999954  0.60104021  0.45668414  1
  As  As10  1  0.74999954  0.10104024  0.04331605  1
  As  As11  1  0.24999985  0.39895974  0.54331624  1
