# generated using pymatgen
data_Hf3(NiGe)4
_symmetry_space_group_name_H-M   'P 1'
_cell_length_a   7.49132808
_cell_length_b   7.49132808
_cell_length_c   7.49132808
_cell_angle_alpha   149.80604826
_cell_angle_beta   128.54355328
_cell_angle_gamma   60.82772171
_symmetry_Int_Tables_number   1
_chemical_formula_structural   Hf3(NiGe)4
_chemical_formula_sum   'Hf3 Ni4 Ge4'
_cell_volume   163.96974970
_cell_formula_units_Z   1
loop_
 _symmetry_equiv_pos_site_id
 _symmetry_equiv_pos_as_xyz
  1  'x, y, z'
loop_
 _atom_site_type_symbol
 _atom_site_label
 _atom_site_symmetry_multiplicity
 _atom_site_fract_x
 _atom_site_fract_y
 _atom_site_fract_z
 _atom_site_occupancy
  Hf  Hf0  1  0.50000043  0.00000000  0.50000043  1
  Hf  Hf1  1  0.87190378  0.87190378  -0.00000000  1
  Hf  Hf2  1  0.12809690  0.12809690  -0.00000000  1
  Ni  Ni3  1  0.87756523  0.67654272  0.20102251  1
  Ni  Ni4  1  0.12243554  0.32345685  0.79897715  1
  Ni  Ni5  1  0.52448047  0.32345796  0.20102251  1
  Ni  Ni6  1  0.47552030  0.67654161  0.79897715  1
  Ge  Ge7  1  0.28710573  0.78710497  0.49999923  1
  Ge  Ge8  1  0.71289504  0.21289461  0.50000043  1
  Ge  Ge9  1  0.20081532  0.49999923  0.70081455  1
  Ge  Ge10  1  0.79918545  0.50000034  0.29918511  1
