# generated using pymatgen
data_Ba4TiPb
_symmetry_space_group_name_H-M   'P 1'
_cell_length_a   7.06573065
_cell_length_b   7.06573065
_cell_length_c   7.06573065
_cell_angle_alpha   60.00000000
_cell_angle_beta   60.00000000
_cell_angle_gamma   60.00000000
_symmetry_Int_Tables_number   1
_chemical_formula_structural   Ba4TiPb
_chemical_formula_sum   'Ba4 Ti1 Pb1'
_cell_volume   249.43433589
_cell_formula_units_Z   1
loop_
 _symmetry_equiv_pos_site_id
 _symmetry_equiv_pos_as_xyz
  1  'x, y, z'
loop_
 _atom_site_type_symbol
 _atom_site_label
 _atom_site_symmetry_multiplicity
 _atom_site_fract_x
 _atom_site_fract_y
 _atom_site_fract_z
 _atom_site_occupancy
  Ba  Ba0  1  0.12647833  0.62450775  0.62450775  1
  Ba  Ba1  1  0.62450775  0.62450775  0.62450775  1
  Ba  Ba2  1  0.62450775  0.12647833  0.62450775  1
  Ba  Ba3  1  0.62450775  0.62450775  0.12647833  1
  Ti  Ti4  1  0.00000000  0.00000000  0.00000000  1
  Pb  Pb5  1  0.25000020  0.25000020  0.25000020  1
