# generated using pymatgen
data_Ba4GaCl
_symmetry_space_group_name_H-M   'P 1'
_cell_length_a   7.11701829
_cell_length_b   7.11701829
_cell_length_c   7.11701829
_cell_angle_alpha   60.00000000
_cell_angle_beta   60.00000000
_cell_angle_gamma   60.00000000
_symmetry_Int_Tables_number   1
_chemical_formula_structural   Ba4GaCl
_chemical_formula_sum   'Ba4 Ga1 Cl1'
_cell_volume   254.90552460
_cell_formula_units_Z   1
loop_
 _symmetry_equiv_pos_site_id
 _symmetry_equiv_pos_as_xyz
  1  'x, y, z'
loop_
 _atom_site_type_symbol
 _atom_site_label
 _atom_site_symmetry_multiplicity
 _atom_site_fract_x
 _atom_site_fract_y
 _atom_site_fract_z
 _atom_site_occupancy
  Ba  Ba0  1  0.12421257  0.62526189  0.62526189  1
  Ba  Ba1  1  0.62526189  0.62526189  0.62526189  1
  Ba  Ba2  1  0.62526189  0.12421257  0.62526189  1
  Ba  Ba3  1  0.62526189  0.62526189  0.12421257  1
  Ga  Ga4  1  0.00000000  0.00000000  0.00000000  1
  Cl  Cl5  1  0.24999991  0.24999991  0.24999991  1
