# generated using pymatgen
data_Sr2CuWO6
_symmetry_space_group_name_H-M   'P 1'
_cell_length_a   5.77166863
_cell_length_b   5.77166863
_cell_length_c   5.77166863
_cell_angle_alpha   124.21170919
_cell_angle_beta   124.21170919
_cell_angle_gamma   82.84784146
_symmetry_Int_Tables_number   1
_chemical_formula_structural   Sr2CuWO6
_chemical_formula_sum   'Sr2 Cu1 W1 O6'
_cell_volume   126.21866986
_cell_formula_units_Z   1
loop_
 _symmetry_equiv_pos_site_id
 _symmetry_equiv_pos_as_xyz
  1  'x, y, z'
loop_
 _atom_site_type_symbol
 _atom_site_label
 _atom_site_symmetry_multiplicity
 _atom_site_fract_x
 _atom_site_fract_y
 _atom_site_fract_z
 _atom_site_occupancy
  Sr  Sr0  1  0.74999923  0.25000008  0.49999915  1
  Sr  Sr1  1  0.25000008  0.74999923  0.49999915  1
  Cu  Cu2  1  0.50000016  0.50000016  0.00000000  1
  W  W3  1  0.00000000  0.00000000  0.00000000  1
  O  O4  1  0.22450107  0.22450107  0.00000000  1
  O  O5  1  0.77549924  0.77549924  -0.00000000  1
  O  O6  1  0.69872331  0.80518093  0.50390392  1
  O  O7  1  0.30127600  0.19481837  0.49609437  1
  O  O8  1  0.80518093  0.30127701  0.10645762  1
  O  O9  1  0.19481837  0.69872230  0.89354067  1
