# generated using pymatgen
data_Sr2ScCoAsO3
_symmetry_space_group_name_H-M   'P 1'
_cell_length_a   4.06158955
_cell_length_b   4.06158955
_cell_length_c   15.49662362
_cell_angle_alpha   90.00000000
_cell_angle_beta   90.00000000
_cell_angle_gamma   90.00000000
_symmetry_Int_Tables_number   1
_chemical_formula_structural   Sr2ScCoAsO3
_chemical_formula_sum   'Sr4 Sc2 Co2 As2 O6'
_cell_volume   255.64020124
_cell_formula_units_Z   2
loop_
 _symmetry_equiv_pos_site_id
 _symmetry_equiv_pos_as_xyz
  1  'x, y, z'
loop_
 _atom_site_type_symbol
 _atom_site_label
 _atom_site_symmetry_multiplicity
 _atom_site_fract_x
 _atom_site_fract_y
 _atom_site_fract_z
 _atom_site_occupancy
  Sr  Sr0  1  0.75000008  0.75000008  0.18150943  1
  Sr  Sr1  1  0.25000003  0.25000003  0.81849033  1
  Sr  Sr2  1  0.75000008  0.75000008  0.41210982  1
  Sr  Sr3  1  0.25000003  0.25000003  0.58788995  1
  Sc  Sc4  1  0.25000003  0.25000003  0.30361626  1
  Sc  Sc5  1  0.75000008  0.75000008  0.69638351  1
  Co  Co6  1  0.25000003  0.75000008  0.00000000  1
  Co  Co7  1  0.75000008  0.25000003  0.00000000  1
  As  As8  1  0.25000003  0.25000003  0.07688797  1
  As  As9  1  0.75000008  0.75000008  0.92311179  1
  O  O10  1  0.75000008  0.25000003  0.28212956  1
  O  O11  1  0.25000003  0.75000008  0.28212956  1
  O  O12  1  0.25000003  0.75000008  0.71787021  1
  O  O13  1  0.75000008  0.25000003  0.71787021  1
  O  O14  1  0.25000003  0.25000003  0.43211476  1
  O  O15  1  0.75000008  0.75000008  0.56788500  1
