# generated using pymatgen
data_Sc6ReO12
_symmetry_space_group_name_H-M   'P 1'
_cell_length_a   6.10722754
_cell_length_b   6.10722754
_cell_length_c   6.10722754
_cell_angle_alpha   99.07716172
_cell_angle_beta   99.07716172
_cell_angle_gamma   99.07716172
_symmetry_Int_Tables_number   1
_chemical_formula_structural   Sc6ReO12
_chemical_formula_sum   'Sc6 Re1 O12'
_cell_volume   218.18760095
_cell_formula_units_Z   1
loop_
 _symmetry_equiv_pos_site_id
 _symmetry_equiv_pos_as_xyz
  1  'x, y, z'
loop_
 _atom_site_type_symbol
 _atom_site_label
 _atom_site_symmetry_multiplicity
 _atom_site_fract_x
 _atom_site_fract_y
 _atom_site_fract_z
 _atom_site_occupancy
  Sc  Sc0  1  0.85583775  0.67209799  0.39050801  1
  Sc  Sc1  1  0.39050923  0.85583754  0.67209667  1
  Sc  Sc2  1  0.14416202  0.32790178  0.60948997  1
  Sc  Sc3  1  0.32790212  0.60949068  0.14416147  1
  Sc  Sc4  1  0.60949054  0.14416223  0.32790130  1
  Sc  Sc5  1  0.67209765  0.39050909  0.85583650  1
  Re  Re6  1  0.00000000  0.00000000  0.00000000  1
  O  O7  1  0.58607582  0.41829618  0.17771374  1
  O  O8  1  0.41829588  0.17771439  0.58607503  1
  O  O9  1  0.30638170  0.95721564  0.09567147  1
  O  O10  1  0.58170389  0.82228538  0.41392294  1
  O  O11  1  0.82228526  0.41392413  0.58170265  1
  O  O12  1  0.04278429  0.90432724  0.69361741  1
  O  O13  1  0.90432772  0.69361871  0.04278322  1
  O  O14  1  0.69361808  0.04278413  0.90432650  1
  O  O15  1  0.95721549  0.09567253  0.30638056  1
  O  O16  1  0.09567205  0.30638106  0.95721476  1
  O  O17  1  0.41392395  0.58170359  0.82228423  1
  O  O18  1  0.17771452  0.58607565  0.41829532  1
