# generated using pymatgen
data_YbGaPt
_symmetry_space_group_name_H-M   'P 1'
_cell_length_a   4.28547181
_cell_length_b   6.96724198
_cell_length_c   7.79819443
_cell_angle_alpha   90.00000000
_cell_angle_beta   90.00000000
_cell_angle_gamma   90.00000000
_symmetry_Int_Tables_number   1
_chemical_formula_structural   YbGaPt
_chemical_formula_sum   'Yb4 Ga4 Pt4'
_cell_volume   232.83785869
_cell_formula_units_Z   4
loop_
 _symmetry_equiv_pos_site_id
 _symmetry_equiv_pos_as_xyz
  1  'x, y, z'
loop_
 _atom_site_type_symbol
 _atom_site_label
 _atom_site_symmetry_multiplicity
 _atom_site_fract_x
 _atom_site_fract_y
 _atom_site_fract_z
 _atom_site_occupancy
  Yb  Yb0  1  0.24999989  0.97596734  0.31430471  1
  Yb  Yb1  1  0.74999968  0.52403223  0.81430442  1
  Yb  Yb2  1  0.74999968  0.02403238  0.68569472  1
  Yb  Yb3  1  0.24999989  0.47596748  0.18569501  1
  Ga  Ga4  1  0.24999989  0.34407037  0.56928927  1
  Ga  Ga5  1  0.74999968  0.15592948  0.06928955  1
  Ga  Ga6  1  0.74999968  0.65592934  0.43071017  1
  Ga  Ga7  1  0.24999989  0.84407023  0.93070988  1
  Pt  Pt8  1  0.24999989  0.22316590  0.88578565  1
  Pt  Pt9  1  0.74999968  0.27683396  0.38578594  1
  Pt  Pt10  1  0.74999968  0.77683381  0.11421378  1
  Pt  Pt11  1  0.24999989  0.72316576  0.61421350  1
