# generated using pymatgen
data_ReN2
_symmetry_space_group_name_H-M   'P 1'
_cell_length_a   2.86589281
_cell_length_b   4.15447919
_cell_length_c   9.60446064
_cell_angle_alpha   90.00000000
_cell_angle_beta   90.00000000
_cell_angle_gamma   90.00000000
_symmetry_Int_Tables_number   1
_chemical_formula_structural   ReN2
_chemical_formula_sum   'Re4 N8'
_cell_volume   114.35351349
_cell_formula_units_Z   4
loop_
 _symmetry_equiv_pos_site_id
 _symmetry_equiv_pos_as_xyz
  1  'x, y, z'
loop_
 _atom_site_type_symbol
 _atom_site_label
 _atom_site_symmetry_multiplicity
 _atom_site_fract_x
 _atom_site_fract_y
 _atom_site_fract_z
 _atom_site_occupancy
  Re  Re0  1  0.24999975  0.90034481  0.10891980  1
  Re  Re1  1  0.74999926  0.40034472  0.39108017  1
  Re  Re2  1  0.74999926  0.09965538  0.89108014  1
  Re  Re3  1  0.24999975  0.59965548  0.60891976  1
  N  N4  1  0.74999926  0.54408652  0.17428035  1
  N  N5  1  0.24999975  0.04408643  0.32571962  1
  N  N6  1  0.24999975  0.45591367  0.82571958  1
  N  N7  1  0.74999926  0.95591377  0.67428032  1
  N  N8  1  0.74999926  0.26077423  0.09470412  1
  N  N9  1  0.24999975  0.76077433  0.40529585  1
  N  N10  1  0.24999975  0.73922596  0.90529581  1
  N  N11  1  0.74999926  0.23922587  0.59470409  1
