# generated using pymatgen
data_Ca2BeBi
_symmetry_space_group_name_H-M   'P 1'
_cell_length_a   6.25820023
_cell_length_b   6.25820023
_cell_length_c   6.25820023
_cell_angle_alpha   137.98146356
_cell_angle_beta   137.98146356
_cell_angle_gamma   60.93138916
_symmetry_Int_Tables_number   1
_chemical_formula_structural   Ca2BeBi
_chemical_formula_sum   'Ca2 Be1 Bi1'
_cell_volume   108.61906669
_cell_formula_units_Z   1
loop_
 _symmetry_equiv_pos_site_id
 _symmetry_equiv_pos_as_xyz
  1  'x, y, z'
loop_
 _atom_site_type_symbol
 _atom_site_label
 _atom_site_symmetry_multiplicity
 _atom_site_fract_x
 _atom_site_fract_y
 _atom_site_fract_z
 _atom_site_occupancy
  Ca  Ca0  1  0.00000000  0.00000000  0.00000000  1
  Ca  Ca1  1  0.25000006  0.74999930  0.49999923  1
  Be  Be2  1  0.50000013  0.50000013  0.00000000  1
  Bi  Bi3  1  0.74999930  0.25000006  0.49999923  1
