# generated using pymatgen
data_PbS
_symmetry_space_group_name_H-M   'P 1'
_cell_length_a   4.23669819
_cell_length_b   4.23608086
_cell_length_c   11.98419791
_cell_angle_alpha   90.00000000
_cell_angle_beta   90.00000000
_cell_angle_gamma   90.00000000
_symmetry_Int_Tables_number   1
_chemical_formula_structural   PbS
_chemical_formula_sum   'Pb4 S4'
_cell_volume   215.08035375
_cell_formula_units_Z   4
loop_
 _symmetry_equiv_pos_site_id
 _symmetry_equiv_pos_as_xyz
  1  'x, y, z'
loop_
 _atom_site_type_symbol
 _atom_site_label
 _atom_site_symmetry_multiplicity
 _atom_site_fract_x
 _atom_site_fract_y
 _atom_site_fract_z
 _atom_site_occupancy
  Pb  Pb0  1  0.75000032  0.74981166  0.12497560  1
  Pb  Pb1  1  0.25000011  0.24981176  0.37502449  1
  Pb  Pb2  1  0.25000011  0.25018814  0.87502457  1
  Pb  Pb3  1  0.75000032  0.75018804  0.62497569  1
  S  S4  1  0.75000032  0.74980933  0.37500526  1
  S  S5  1  0.25000011  0.24980943  0.12499483  1
  S  S6  1  0.25000011  0.25019047  0.62499491  1
  S  S7  1  0.75000032  0.75019037  0.87500535  1
