# generated using pymatgen
data_U3Si
_symmetry_space_group_name_H-M   'P 1'
_cell_length_a   6.06340432
_cell_length_b   6.06340432
_cell_length_c   6.06340432
_cell_angle_alpha   120.24719737
_cell_angle_beta   120.24719737
_cell_angle_gamma   89.57237221
_symmetry_Int_Tables_number   1
_chemical_formula_structural   U3Si
_chemical_formula_sum   'U6 Si2'
_cell_volume   157.03474300
_cell_formula_units_Z   2
loop_
 _symmetry_equiv_pos_site_id
 _symmetry_equiv_pos_as_xyz
  1  'x, y, z'
loop_
 _atom_site_type_symbol
 _atom_site_label
 _atom_site_symmetry_multiplicity
 _atom_site_fract_x
 _atom_site_fract_y
 _atom_site_fract_z
 _atom_site_occupancy
  U  U0  1  0.24999975  0.75000017  0.50000041  1
  U  U1  1  0.75000017  0.24999975  0.50000041  1
  U  U2  1  0.27693410  0.22306631  0.50000041  1
  U  U3  1  0.72306582  0.77693361  0.50000041  1
  U  U4  1  0.77693361  0.27693319  0.05386778  1
  U  U5  1  0.22306631  0.72306673  0.94613304  1
  Si  Si6  1  0.74999926  0.74999926  -0.00000000  1
  Si  Si7  1  0.24999975  0.24999975  -0.00000000  1
