# generated using pymatgen
data_Be2CdCl
_symmetry_space_group_name_H-M   'P 1'
_cell_length_a   6.91175468
_cell_length_b   6.91175468
_cell_length_c   6.91175468
_cell_angle_alpha   151.97909531
_cell_angle_beta   151.97909531
_cell_angle_gamma   40.04383101
_symmetry_Int_Tables_number   1
_chemical_formula_structural   Be2CdCl
_chemical_formula_sum   'Be2 Cd1 Cl1'
_cell_volume   72.73373505
_cell_formula_units_Z   1
loop_
 _symmetry_equiv_pos_site_id
 _symmetry_equiv_pos_as_xyz
  1  'x, y, z'
loop_
 _atom_site_type_symbol
 _atom_site_label
 _atom_site_symmetry_multiplicity
 _atom_site_fract_x
 _atom_site_fract_y
 _atom_site_fract_z
 _atom_site_occupancy
  Be  Be0  1  0.00000000  0.00000000  0.00000000  1
  Be  Be1  1  0.24999999  0.75000053  0.50000054  1
  Cd  Cd2  1  0.49999999  0.49999999  0.00000000  1
  Cl  Cl3  1  0.75000053  0.24999999  0.50000054  1
