# generated using pymatgen
data_SmSi
_symmetry_space_group_name_H-M   'P 1'
_cell_length_a   3.90327026
_cell_length_b   5.83044246
_cell_length_c   8.12734338
_cell_angle_alpha   90.00000000
_cell_angle_beta   90.00000000
_cell_angle_gamma   90.00000000
_symmetry_Int_Tables_number   1
_chemical_formula_structural   SmSi
_chemical_formula_sum   'Sm4 Si4'
_cell_volume   184.96039541
_cell_formula_units_Z   4
loop_
 _symmetry_equiv_pos_site_id
 _symmetry_equiv_pos_as_xyz
  1  'x, y, z'
loop_
 _atom_site_type_symbol
 _atom_site_label
 _atom_site_symmetry_multiplicity
 _atom_site_fract_x
 _atom_site_fract_y
 _atom_site_fract_z
 _atom_site_occupancy
  Sm  Sm0  1  0.74999995  0.88628150  0.17924592  1
  Sm  Sm1  1  0.24999998  0.38628171  0.32075387  1
  Sm  Sm2  1  0.24999998  0.11371807  0.82075367  1
  Sm  Sm3  1  0.74999995  0.61371786  0.67924571  1
  Si  Si4  1  0.74999995  0.37364706  0.03703589  1
  Si  Si5  1  0.24999998  0.87364685  0.46296391  1
  Si  Si6  1  0.24999998  0.62635252  0.96296370  1
  Si  Si7  1  0.74999995  0.12635273  0.53703568  1
