# generated using pymatgen
data_BeGeSb2
_symmetry_space_group_name_H-M   'P 1'
_cell_length_a   3.75006187
_cell_length_b   3.75006187
_cell_length_c   6.77066153
_cell_angle_alpha   90.00000000
_cell_angle_beta   90.00000000
_cell_angle_gamma   90.00000000
_symmetry_Int_Tables_number   1
_chemical_formula_structural   BeGeSb2
_chemical_formula_sum   'Be1 Ge1 Sb2'
_cell_volume   95.21556945
_cell_formula_units_Z   1
loop_
 _symmetry_equiv_pos_site_id
 _symmetry_equiv_pos_as_xyz
  1  'x, y, z'
loop_
 _atom_site_type_symbol
 _atom_site_label
 _atom_site_symmetry_multiplicity
 _atom_site_fract_x
 _atom_site_fract_y
 _atom_site_fract_z
 _atom_site_occupancy
  Be  Be0  1  0.00000000  0.00000000  0.50611909  1
  Ge  Ge1  1  0.49999975  0.49999975  0.74851649  1
  Sb  Sb2  1  0.00000000  0.00000000  0.89292027  1
  Sb  Sb3  1  0.49999975  0.49999975  0.35244359  1
