# generated using pymatgen
data_DyRe2
_symmetry_space_group_name_H-M   'P 1'
_cell_length_a   5.42246817
_cell_length_b   5.42246817
_cell_length_c   8.82830294
_cell_angle_alpha   90.00000000
_cell_angle_beta   90.00000000
_cell_angle_gamma   119.99988028
_symmetry_Int_Tables_number   1
_chemical_formula_structural   DyRe2
_chemical_formula_sum   'Dy4 Re8'
_cell_volume   224.80315710
_cell_formula_units_Z   4
loop_
 _symmetry_equiv_pos_site_id
 _symmetry_equiv_pos_as_xyz
  1  'x, y, z'
loop_
 _atom_site_type_symbol
 _atom_site_label
 _atom_site_symmetry_multiplicity
 _atom_site_fract_x
 _atom_site_fract_y
 _atom_site_fract_z
 _atom_site_occupancy
  Dy  Dy0  1  0.33333254  0.66666783  0.06229787  1
  Dy  Dy1  1  0.66666783  0.33333254  0.56229770  1
  Dy  Dy2  1  0.66666783  0.33333254  0.93770180  1
  Dy  Dy3  1  0.33333254  0.66666783  0.43770196  1
  Re  Re4  1  0.00000000  0.00000000  0.00000000  1
  Re  Re5  1  0.00000000  0.00000000  0.49999983  1
  Re  Re6  1  0.82896872  0.65794229  0.24999992  1
  Re  Re7  1  0.34205809  0.17103165  0.24999992  1
  Re  Re8  1  0.82896809  0.17103228  0.24999992  1
  Re  Re9  1  0.17103165  0.34205809  0.74999975  1
  Re  Re10  1  0.65794229  0.82896872  0.74999975  1
  Re  Re11  1  0.17103228  0.82896809  0.74999975  1
