# generated using pymatgen
data_Ca4MgB4H6(CO9)2
_symmetry_space_group_name_H-M   'P 1'
_cell_length_a   9.73261437
_cell_length_b   9.73261437
_cell_length_c   4.48792137
_cell_angle_alpha   79.74051391
_cell_angle_beta   79.74051391
_cell_angle_gamma   52.50373462
_symmetry_Int_Tables_number   1
_chemical_formula_structural   Ca4MgB4H6(CO9)2
_chemical_formula_sum   'Ca4 Mg1 B4 H6 C2 O18'
_cell_volume   330.56389103
_cell_formula_units_Z   1
loop_
 _symmetry_equiv_pos_site_id
 _symmetry_equiv_pos_as_xyz
  1  'x, y, z'
loop_
 _atom_site_type_symbol
 _atom_site_label
 _atom_site_symmetry_multiplicity
 _atom_site_fract_x
 _atom_site_fract_y
 _atom_site_fract_z
 _atom_site_occupancy
  Ca  Ca0  1  0.07585777  0.61089969  0.14553840  1
  Ca  Ca1  1  0.38910018  0.92414210  0.85446191  1
  Ca  Ca2  1  0.92414210  0.38910018  0.85446191  1
  Ca  Ca3  1  0.61089969  0.07585777  0.14553840  1
  Mg  Mg4  1  0.00000000  0.00000000  0.00000000  1
  B  B5  1  0.22825957  0.77174031  0.50000015  1
  B  B6  1  0.77174031  0.22825957  0.50000015  1
  B  B7  1  0.90114404  0.90114404  0.61428601  1
  B  B8  1  0.09885583  0.09885583  0.38571430  1
  H  H9  1  0.21838711  0.21838711  0.31863299  1
  H  H10  1  0.78161276  0.78161276  0.68136732  1
  H  H11  1  0.59385309  0.38974758  0.21121958  1
  H  H12  1  0.61025229  0.40614678  0.78878073  1
  H  H13  1  0.40614678  0.61025229  0.78878073  1
  H  H14  1  0.38974758  0.59385309  0.21121958  1
  C  C15  1  0.30954502  0.30954502  0.74602963  1
  C  C16  1  0.69045485  0.69045485  0.25397068  1
  O  O17  1  0.17978757  0.17978757  0.18661073  1
  O  O18  1  0.82021230  0.82021230  0.81338958  1
  O  O19  1  0.41879540  0.15490876  0.64931835  1
  O  O20  1  0.84509112  0.58120447  0.35068196  1
  O  O21  1  0.58120447  0.84509112  0.35068196  1
  O  O22  1  0.15490876  0.41879540  0.64931835  1
  O  O23  1  0.62831495  0.28054789  0.32662717  1
  O  O24  1  0.71945198  0.37168492  0.67337314  1
  O  O25  1  0.89782679  0.89782679  0.30397415  1
  O  O26  1  0.28054789  0.62831495  0.32662717  1
  O  O27  1  0.80581639  0.08080612  0.71831042  1
  O  O28  1  0.91919375  0.19418348  0.28168989  1
  O  O29  1  0.19418348  0.91919375  0.28168989  1
  O  O30  1  0.08080612  0.80581639  0.71831042  1
  O  O31  1  0.10217308  0.10217308  0.69602616  1
  O  O32  1  0.64793306  0.64793306  0.04830512  1
  O  O33  1  0.37168492  0.71945198  0.67337314  1
  O  O34  1  0.35206682  0.35206682  0.95169518  1
