# generated using pymatgen
data_CrH12I(N2Cl)2
_symmetry_space_group_name_H-M   'P 1'
_cell_length_a   6.45013100
_cell_length_b   6.45013100
_cell_length_c   5.99922228
_cell_angle_alpha   75.57004563
_cell_angle_beta   75.57004563
_cell_angle_gamma   82.08871030
_symmetry_Int_Tables_number   1
_chemical_formula_structural   CrH12I(N2Cl)2
_chemical_formula_sum   'Cr1 H12 I1 N4 Cl2'
_cell_volume   233.33285122
_cell_formula_units_Z   1
loop_
 _symmetry_equiv_pos_site_id
 _symmetry_equiv_pos_as_xyz
  1  'x, y, z'
loop_
 _atom_site_type_symbol
 _atom_site_label
 _atom_site_symmetry_multiplicity
 _atom_site_fract_x
 _atom_site_fract_y
 _atom_site_fract_z
 _atom_site_occupancy
  Cr  Cr0  1  0.00000016  0.00000016  0.50000013  1
  H  H1  1  0.63752887  0.90200093  0.80849558  1
  H  H2  1  0.41698152  0.87153058  0.37065883  1
  H  H3  1  0.12846978  0.58301884  0.62934252  1
  H  H4  1  0.58301884  0.12846978  0.62934252  1
  H  H5  1  0.87153058  0.41698152  0.37065883  1
  H  H6  1  0.36247149  0.09799943  0.19150577  1
  H  H7  1  0.90200093  0.63752887  0.80849558  1
  H  H8  1  0.09799943  0.36247149  0.19150577  1
  H  H9  1  0.29650712  0.86856573  0.15993642  1
  H  H10  1  0.13143463  0.70349324  0.84006494  1
  H  H11  1  0.70349324  0.13143463  0.84006494  1
  H  H12  1  0.86856573  0.29650712  0.15993642  1
  I  I13  1  0.50000002  0.50000002  0.00000055  1
  N  N14  1  0.04687619  0.69815573  0.71745334  1
  N  N15  1  0.30184463  0.95312417  0.28254801  1
  N  N16  1  0.95312417  0.30184463  0.28254801  1
  N  N17  1  0.69815573  0.04687619  0.71745334  1
  Cl  Cl18  1  0.83792792  0.83792792  0.28673214  1
  Cl  Cl19  1  0.16207244  0.16207244  0.71326921  1
