# generated using pymatgen
data_PuRe2
_symmetry_space_group_name_H-M   'P 1'
_cell_length_a   5.60089808
_cell_length_b   5.60139205
_cell_length_c   7.90551238
_cell_angle_alpha   90.00000000
_cell_angle_beta   90.00000000
_cell_angle_gamma   119.99708285
_symmetry_Int_Tables_number   1
_chemical_formula_structural   PuRe2
_chemical_formula_sum   'Pu4 Re8'
_cell_volume   214.79643094
_cell_formula_units_Z   4
loop_
 _symmetry_equiv_pos_site_id
 _symmetry_equiv_pos_as_xyz
  1  'x, y, z'
loop_
 _atom_site_type_symbol
 _atom_site_label
 _atom_site_symmetry_multiplicity
 _atom_site_fract_x
 _atom_site_fract_y
 _atom_site_fract_z
 _atom_site_occupancy
  Pu  Pu0  1  0.66666241  0.33332539  0.10117230  1
  Pu  Pu1  1  0.33333673  0.66667474  0.60117215  1
  Pu  Pu2  1  0.33333673  0.66667474  0.89882740  1
  Pu  Pu3  1  0.66666241  0.33332539  0.39882755  1
  Re  Re4  1  0.00000000  0.00000000  0.00000000  1
  Re  Re5  1  0.00000000  0.00000000  0.49999985  1
  Re  Re6  1  0.65323904  0.82660014  0.24999992  1
  Re  Re7  1  0.17335946  0.82660006  0.24999992  1
  Re  Re8  1  0.17334503  0.34669073  0.24999992  1
  Re  Re9  1  0.34676010  0.17339999  0.74999977  1
  Re  Re10  1  0.82663967  0.17340007  0.74999977  1
  Re  Re11  1  0.82665411  0.65330940  0.74999977  1
