# generated using pymatgen
data_Be2GaP
_symmetry_space_group_name_H-M   'P 1'
_cell_length_a   5.00386479
_cell_length_b   5.00386479
_cell_length_c   5.00386479
_cell_angle_alpha   140.29401091
_cell_angle_beta   140.29401091
_cell_angle_gamma   57.40715602
_symmetry_Int_Tables_number   1
_chemical_formula_structural   Be2GaP
_chemical_formula_sum   'Be2 Ga1 P1'
_cell_volume   50.69786766
_cell_formula_units_Z   1
loop_
 _symmetry_equiv_pos_site_id
 _symmetry_equiv_pos_as_xyz
  1  'x, y, z'
loop_
 _atom_site_type_symbol
 _atom_site_label
 _atom_site_symmetry_multiplicity
 _atom_site_fract_x
 _atom_site_fract_y
 _atom_site_fract_z
 _atom_site_occupancy
  Be  Be0  1  0.00000000  0.00000000  0.00000000  1
  Be  Be1  1  0.24999996  0.74999918  0.49999923  1
  Ga  Ga2  1  0.49999992  0.49999992  0.00000000  1
  P  P3  1  0.74999918  0.24999996  0.49999923  1
