# generated using pymatgen
data_Be2NbW
_symmetry_space_group_name_H-M   'P 1'
_cell_length_a   3.12452659
_cell_length_b   3.12452659
_cell_length_c   5.29259482
_cell_angle_alpha   90.00000000
_cell_angle_beta   90.00000000
_cell_angle_gamma   90.00000000
_symmetry_Int_Tables_number   1
_chemical_formula_structural   Be2NbW
_chemical_formula_sum   'Be2 Nb1 W1'
_cell_volume   51.66983759
_cell_formula_units_Z   1
loop_
 _symmetry_equiv_pos_site_id
 _symmetry_equiv_pos_as_xyz
  1  'x, y, z'
loop_
 _atom_site_type_symbol
 _atom_site_label
 _atom_site_symmetry_multiplicity
 _atom_site_fract_x
 _atom_site_fract_y
 _atom_site_fract_z
 _atom_site_occupancy
  Be  Be0  1  0.00000000  0.00000000  0.71286878  1
  Be  Be1  1  0.00000000  0.00000000  0.28713031  1
  Nb  Nb2  1  0.50000055  0.50000055  0.00000000  1
  W  W3  1  0.50000055  0.50000055  0.49999954  1
