# generated using pymatgen
data_Ta5Ga3
_symmetry_space_group_name_H-M   'P 1'
_cell_length_a   7.81603295
_cell_length_b   7.81603295
_cell_length_c   5.26812717
_cell_angle_alpha   90.00000000
_cell_angle_beta   90.00000000
_cell_angle_gamma   122.22478133
_symmetry_Int_Tables_number   1
_chemical_formula_structural   Ta5Ga3
_chemical_formula_sum   'Ta10 Ga6'
_cell_volume   272.25770654
_cell_formula_units_Z   2
loop_
 _symmetry_equiv_pos_site_id
 _symmetry_equiv_pos_as_xyz
  1  'x, y, z'
loop_
 _atom_site_type_symbol
 _atom_site_label
 _atom_site_symmetry_multiplicity
 _atom_site_fract_x
 _atom_site_fract_y
 _atom_site_fract_z
 _atom_site_occupancy
  Ta  Ta0  1  0.33416331  0.66583638  0.00000000  1
  Ta  Ta1  1  0.66583638  0.33416331  0.50000027  1
  Ta  Ta2  1  0.66583638  0.33416331  0.00000000  1
  Ta  Ta3  1  0.33416331  0.66583638  0.50000027  1
  Ta  Ta4  1  0.25592338  0.00728408  0.25000013  1
  Ta  Ta5  1  0.00728408  0.25592338  0.25000013  1
  Ta  Ta6  1  0.79985627  0.79985627  0.25000013  1
  Ta  Ta7  1  0.74407673  -0.00728450  0.75000040  1
  Ta  Ta8  1  -0.00728450  0.74407673  0.75000040  1
  Ta  Ta9  1  0.20014342  0.20014342  0.75000040  1
  Ga  Ga10  1  0.60942087  0.00242992  0.25000013  1
  Ga  Ga11  1  0.00242992  0.60942087  0.25000013  1
  Ga  Ga12  1  0.40813460  0.40813460  0.25000013  1
  Ga  Ga13  1  0.39057925  -0.00243034  0.75000040  1
  Ga  Ga14  1  -0.00243034  0.39057925  0.75000040  1
  Ga  Ga15  1  0.59186509  0.59186509  0.75000040  1
