# generated using pymatgen
data_LiBeCo2
_symmetry_space_group_name_H-M   'P 1'
_cell_length_a   4.18546177
_cell_length_b   4.18546177
_cell_length_c   4.18546177
_cell_angle_alpha   131.73494348
_cell_angle_beta   131.73494348
_cell_angle_gamma   70.64797836
_symmetry_Int_Tables_number   1
_chemical_formula_structural   LiBeCo2
_chemical_formula_sum   'Li1 Be1 Co2'
_cell_volume   39.99906220
_cell_formula_units_Z   1
loop_
 _symmetry_equiv_pos_site_id
 _symmetry_equiv_pos_as_xyz
  1  'x, y, z'
loop_
 _atom_site_type_symbol
 _atom_site_label
 _atom_site_symmetry_multiplicity
 _atom_site_fract_x
 _atom_site_fract_y
 _atom_site_fract_z
 _atom_site_occupancy
  Li  Li0  1  0.25000002  0.74999992  0.49999990  1
  Be  Be1  1  0.74999992  0.25000002  0.49999990  1
  Co  Co2  1  0.00000000  0.00000000  0.00000000  1
  Co  Co3  1  0.50000004  0.50000004  0.00000000  1
