# generated using pymatgen
data_ZrBeSn
_symmetry_space_group_name_H-M   'P 1'
_cell_length_a   5.79998829
_cell_length_b   5.79998829
_cell_length_c   5.79998829
_cell_angle_alpha   147.68328528
_cell_angle_beta   147.68328528
_cell_angle_gamma   46.35312104
_symmetry_Int_Tables_number   1
_chemical_formula_structural   ZrBeSn
_chemical_formula_sum   'Zr1 Be1 Sn1'
_cell_volume   55.56505620
_cell_formula_units_Z   1
loop_
 _symmetry_equiv_pos_site_id
 _symmetry_equiv_pos_as_xyz
  1  'x, y, z'
loop_
 _atom_site_type_symbol
 _atom_site_label
 _atom_site_symmetry_multiplicity
 _atom_site_fract_x
 _atom_site_fract_y
 _atom_site_fract_z
 _atom_site_occupancy
  Zr  Zr0  1  0.64739827  0.64739827  0.00000000  1
  Be  Be1  1  0.99698763  0.99698763  0.00000000  1
  Sn  Sn2  1  0.35561567  0.35561567  0.00000000  1
