# generated using pymatgen
data_Ti5Ge3
_symmetry_space_group_name_H-M   'P 1'
_cell_length_a   7.68970940
_cell_length_b   7.68970940
_cell_length_c   5.31623099
_cell_angle_alpha   90.00000000
_cell_angle_beta   90.00000000
_cell_angle_gamma   119.99715984
_symmetry_Int_Tables_number   1
_chemical_formula_structural   Ti5Ge3
_chemical_formula_sum   'Ti10 Ge6'
_cell_volume   272.24929178
_cell_formula_units_Z   2
loop_
 _symmetry_equiv_pos_site_id
 _symmetry_equiv_pos_as_xyz
  1  'x, y, z'
loop_
 _atom_site_type_symbol
 _atom_site_label
 _atom_site_symmetry_multiplicity
 _atom_site_fract_x
 _atom_site_fract_y
 _atom_site_fract_z
 _atom_site_occupancy
  Ti  Ti0  1  0.33333009  0.66666997  0.00000000  1
  Ti  Ti1  1  0.66666997  0.33333009  0.49999991  1
  Ti  Ti2  1  0.66666997  0.33333009  0.00000000  1
  Ti  Ti3  1  0.33333009  0.66666997  0.49999991  1
  Ti  Ti4  1  0.25347942  0.99998885  0.24999995  1
  Ti  Ti5  1  0.99998885  0.25347942  0.24999995  1
  Ti  Ti6  1  0.74646085  0.74646085  0.24999995  1
  Ti  Ti7  1  0.74652064  0.00001122  0.74999986  1
  Ti  Ti8  1  0.00001122  0.74652064  0.74999986  1
  Ti  Ti9  1  0.25353922  0.25353922  0.74999986  1
  Ge  Ge10  1  0.61333571  -0.00000610  0.24999995  1
  Ge  Ge11  1  -0.00000610  0.61333571  0.24999995  1
  Ge  Ge12  1  0.38663890  0.38663890  0.24999995  1
  Ge  Ge13  1  0.38666445  0.00000602  0.74999986  1
  Ge  Ge14  1  0.00000602  0.38666445  0.74999986  1
  Ge  Ge15  1  0.61336116  0.61336116  0.74999986  1
