# generated using pymatgen
data_Be2CdBr
_symmetry_space_group_name_H-M   'P 1'
_cell_length_a   7.10638856
_cell_length_b   7.10638856
_cell_length_c   7.10638856
_cell_angle_alpha   151.96726463
_cell_angle_beta   151.96726463
_cell_angle_gamma   40.06110887
_symmetry_Int_Tables_number   1
_chemical_formula_structural   Be2CdBr
_chemical_formula_sum   'Be2 Cd1 Br1'
_cell_volume   79.11398028
_cell_formula_units_Z   1
loop_
 _symmetry_equiv_pos_site_id
 _symmetry_equiv_pos_as_xyz
  1  'x, y, z'
loop_
 _atom_site_type_symbol
 _atom_site_label
 _atom_site_symmetry_multiplicity
 _atom_site_fract_x
 _atom_site_fract_y
 _atom_site_fract_z
 _atom_site_occupancy
  Be  Be0  1  0.00000000  0.00000000  0.00000000  1
  Be  Be1  1  0.24999986  0.74999965  0.49999980  1
  Cd  Cd2  1  0.74999965  0.24999986  0.49999980  1
  Br  Br3  1  0.49999972  0.49999972  0.00000000  1
