# generated using pymatgen
data_LiTiBe2
_symmetry_space_group_name_H-M   'P 1'
_cell_length_a   3.97245110
_cell_length_b   3.97245110
_cell_length_c   3.97245110
_cell_angle_alpha   120.00698272
_cell_angle_beta   120.00698272
_cell_angle_gamma   89.98790600
_symmetry_Int_Tables_number   1
_chemical_formula_structural   LiTiBe2
_chemical_formula_sum   'Li1 Ti1 Be2'
_cell_volume   44.32153889
_cell_formula_units_Z   1
loop_
 _symmetry_equiv_pos_site_id
 _symmetry_equiv_pos_as_xyz
  1  'x, y, z'
loop_
 _atom_site_type_symbol
 _atom_site_label
 _atom_site_symmetry_multiplicity
 _atom_site_fract_x
 _atom_site_fract_y
 _atom_site_fract_z
 _atom_site_occupancy
  Li  Li0  1  0.49999937  0.49999937  0.00000000  1
  Ti  Ti1  1  0.75000071  0.24999968  0.50000103  1
  Be  Be2  1  0.00000000  0.00000000  0.00000000  1
  Be  Be3  1  0.24999968  0.75000071  0.50000103  1
