# generated using pymatgen
data_PrMnGeO5
_symmetry_space_group_name_H-M   'P 1'
_cell_length_a   5.69504743
_cell_length_b   5.77165961
_cell_length_c   7.69591707
_cell_angle_alpha   60.62030114
_cell_angle_beta   68.25583864
_cell_angle_gamma   72.58273921
_symmetry_Int_Tables_number   1
_chemical_formula_structural   PrMnGeO5
_chemical_formula_sum   'Pr2 Mn2 Ge2 O10'
_cell_volume   202.57342890
_cell_formula_units_Z   2
loop_
 _symmetry_equiv_pos_site_id
 _symmetry_equiv_pos_as_xyz
  1  'x, y, z'
loop_
 _atom_site_type_symbol
 _atom_site_label
 _atom_site_symmetry_multiplicity
 _atom_site_fract_x
 _atom_site_fract_y
 _atom_site_fract_z
 _atom_site_occupancy
  Pr  Pr0  1  0.34980785  0.52894758  0.28062667  1
  Pr  Pr1  1  0.65019291  0.47105287  0.71937273  1
  Mn  Mn2  1  0.00000010  0.50000009  -0.00000022  1
  Mn  Mn3  1  -0.00000008  -0.00000017  0.50000025  1
  Ge  Ge4  1  0.30260236  0.07126676  0.76786808  1
  Ge  Ge5  1  0.69739839  0.92873369  0.23213131  1
  O  O6  1  0.05990562  0.19526819  0.63458770  1
  O  O7  1  0.94009513  0.80473225  0.36541169  1
  O  O8  1  0.42309854  0.80110795  0.44030715  1
  O  O9  1  0.57690221  0.19889249  0.55969224  1
  O  O10  1  0.32505817  0.72097720  0.91329177  1
  O  O11  1  0.67494258  0.27902325  0.08670762  1
  O  O12  1  0.26828551  0.22899238  0.92581974  1
  O  O13  1  0.73171524  0.77100807  0.07417966  1
  O  O14  1  0.05966283  0.32293857  0.26284930  1
  O  O15  1  0.94033792  0.67706188  0.73715010  1
