# generated using pymatgen
data_Fe3N
_symmetry_space_group_name_H-M   'P 1'
_cell_length_a   4.46108611
_cell_length_b   4.46132350
_cell_length_c   4.34767336
_cell_angle_alpha   90.00000000
_cell_angle_beta   90.00000000
_cell_angle_gamma   119.99823984
_symmetry_Int_Tables_number   1
_chemical_formula_structural   Fe3N
_chemical_formula_sum   'Fe6 N2'
_cell_volume   74.93756280
_cell_formula_units_Z   2
loop_
 _symmetry_equiv_pos_site_id
 _symmetry_equiv_pos_as_xyz
  1  'x, y, z'
loop_
 _atom_site_type_symbol
 _atom_site_label
 _atom_site_symmetry_multiplicity
 _atom_site_fract_x
 _atom_site_fract_y
 _atom_site_fract_z
 _atom_site_occupancy
  Fe  Fe0  1  -0.00001020  0.68086768  0.00000684  1
  Fe  Fe1  1  0.31912158  0.31913204  -0.00000684  1
  Fe  Fe2  1  0.68087651  -0.00000012  0.00000000  1
  Fe  Fe3  1  0.00001022  0.31913210  0.50000645  1
  Fe  Fe4  1  0.68087725  0.68086756  0.49999277  1
  Fe  Fe5  1  0.31912230  -0.00000006  0.49999961  1
  N  N6  1  0.66666692  0.33333521  0.24999981  1
  N  N7  1  0.33333192  0.66666439  0.74999942  1
