# generated using pymatgen
data_DyAl4Ni
_symmetry_space_group_name_H-M   'P 1'
_cell_length_a   7.95238397
_cell_length_b   7.95238397
_cell_length_c   6.61197715
_cell_angle_alpha   90.00000000
_cell_angle_beta   90.00000000
_cell_angle_gamma   150.45382050
_symmetry_Int_Tables_number   1
_chemical_formula_structural   DyAl4Ni
_chemical_formula_sum   'Dy2 Al8 Ni2'
_cell_volume   206.19728985
_cell_formula_units_Z   2
loop_
 _symmetry_equiv_pos_site_id
 _symmetry_equiv_pos_as_xyz
  1  'x, y, z'
loop_
 _atom_site_type_symbol
 _atom_site_label
 _atom_site_symmetry_multiplicity
 _atom_site_fract_x
 _atom_site_fract_y
 _atom_site_fract_z
 _atom_site_occupancy
  Dy  Dy0  1  0.11715732  0.88284197  0.75000032  1
  Dy  Dy1  1  0.88284197  0.11715732  0.25000011  1
  Al  Al2  1  0.49999965  0.49999965  0.00000000  1
  Al  Al3  1  0.49999965  0.49999965  0.50000022  1
  Al  Al4  1  0.92397272  0.07602658  0.75000032  1
  Al  Al5  1  0.07602658  0.92397272  0.25000011  1
  Al  Al6  1  0.31125883  0.68874047  0.94770958  1
  Al  Al7  1  0.68874047  0.31125883  0.44770936  1
  Al  Al8  1  0.31125883  0.68874047  0.55229107  1
  Al  Al9  1  0.68874047  0.31125883  0.05229085  1
  Ni  Ni10  1  0.77373542  0.22626387  0.75000032  1
  Ni  Ni11  1  0.22626387  0.77373542  0.25000011  1
