# generated using pymatgen
data_K3Nd(AsS4)2
_symmetry_space_group_name_H-M   'P 1'
_cell_length_a   10.72193753
_cell_length_b   10.72193753
_cell_length_c   8.78181894
_cell_angle_alpha   77.63053473
_cell_angle_beta   77.63053473
_cell_angle_gamma   121.76908651
_symmetry_Int_Tables_number   1
_chemical_formula_structural   K3Nd(AsS4)2
_chemical_formula_sum   'K6 Nd2 As4 S16'
_cell_volume   770.64682486
_cell_formula_units_Z   2
loop_
 _symmetry_equiv_pos_site_id
 _symmetry_equiv_pos_as_xyz
  1  'x, y, z'
loop_
 _atom_site_type_symbol
 _atom_site_label
 _atom_site_symmetry_multiplicity
 _atom_site_fract_x
 _atom_site_fract_y
 _atom_site_fract_z
 _atom_site_occupancy
  K  K0  1  0.26358717  0.73641259  0.74999961  1
  K  K1  1  0.73641254  0.26358711  0.24999965  1
  K  K2  1  0.00327856  0.99672120  0.74999961  1
  K  K3  1  0.99672114  0.00327851  0.24999965  1
  K  K4  1  0.49999980  0.49999980  -0.00000033  1
  K  K5  1  0.49999985  0.49999985  0.49999963  1
  Nd  Nd6  1  0.24304518  0.75695446  0.24999965  1
  Nd  Nd7  1  0.75695452  0.24304524  0.74999961  1
  As  As8  1  0.33982064  0.09887508  0.89309349  1
  As  As9  1  0.66017906  0.90112462  0.10690577  1
  As  As10  1  0.90112468  0.66017912  0.60690573  1
  As  As11  1  0.09887503  0.33982059  0.39309353  1
  S  S12  1  0.52980529  0.87146496  0.93682396  1
  S  S13  1  0.49089394  0.14067970  0.64520897  1
  S  S14  1  0.85932006  0.50910582  0.85479025  1
  S  S15  1  0.87146491  0.52980524  0.43682400  1
  S  S16  1  0.47019441  0.12853474  0.06317530  1
  S  S17  1  0.12853479  0.47019447  0.56317526  1
  S  S18  1  0.15347106  0.87148359  0.48687874  1
  S  S19  1  0.75156172  0.73789255  0.62907394  1
  S  S20  1  0.84652864  0.12851611  0.51312052  1
  S  S21  1  0.87148364  0.15347112  0.98687870  1
  S  S22  1  0.24843798  0.26210715  0.37092533  1
  S  S23  1  0.73789250  0.75156167  0.12907398  1
  S  S24  1  0.14067964  0.49089389  0.14520901  1
  S  S25  1  0.26210721  0.24843804  0.87092529  1
  S  S26  1  0.12851606  0.84652859  0.01312056  1
  S  S27  1  0.50910576  0.85932000  0.35479029  1
