# generated using pymatgen
data_BeCuPd2
_symmetry_space_group_name_H-M   'P 1'
_cell_length_a   4.69831807
_cell_length_b   4.69831807
_cell_length_c   4.69831807
_cell_angle_alpha   134.46019496
_cell_angle_beta   134.46019496
_cell_angle_gamma   66.37010165
_symmetry_Int_Tables_number   1
_chemical_formula_structural   BeCuPd2
_chemical_formula_sum   'Be1 Cu1 Pd2'
_cell_volume   52.00638210
_cell_formula_units_Z   1
loop_
 _symmetry_equiv_pos_site_id
 _symmetry_equiv_pos_as_xyz
  1  'x, y, z'
loop_
 _atom_site_type_symbol
 _atom_site_label
 _atom_site_symmetry_multiplicity
 _atom_site_fract_x
 _atom_site_fract_y
 _atom_site_fract_z
 _atom_site_occupancy
  Be  Be0  1  0.50000051  0.50000051  0.00000000  1
  Cu  Cu1  1  0.75000134  0.25000025  0.50000109  1
  Pd  Pd2  1  0.00000000  0.00000000  0.00000000  1
  Pd  Pd3  1  0.25000025  0.75000134  0.50000109  1
