# generated using pymatgen
data_MgBe2Bi
_symmetry_space_group_name_H-M   'P 1'
_cell_length_a   3.49592132
_cell_length_b   3.49592132
_cell_length_c   6.02673134
_cell_angle_alpha   90.00000000
_cell_angle_beta   90.00000000
_cell_angle_gamma   90.00000000
_symmetry_Int_Tables_number   1
_chemical_formula_structural   MgBe2Bi
_chemical_formula_sum   'Mg1 Be2 Bi1'
_cell_volume   73.65549140
_cell_formula_units_Z   1
loop_
 _symmetry_equiv_pos_site_id
 _symmetry_equiv_pos_as_xyz
  1  'x, y, z'
loop_
 _atom_site_type_symbol
 _atom_site_label
 _atom_site_symmetry_multiplicity
 _atom_site_fract_x
 _atom_site_fract_y
 _atom_site_fract_z
 _atom_site_occupancy
  Mg  Mg0  1  0.49999981  0.49999981  0.49999989  1
  Be  Be1  1  -0.00000000  0.00000000  0.67938205  1
  Be  Be2  1  -0.00000000  0.00000000  0.32061772  1
  Bi  Bi3  1  0.49999981  0.49999981  0.00000000  1
