# generated using pymatgen
data_BeIr4Se
_symmetry_space_group_name_H-M   'P 1'
_cell_length_a   5.19797117
_cell_length_b   5.19797117
_cell_length_c   5.19797117
_cell_angle_alpha   60.00000000
_cell_angle_beta   60.00000000
_cell_angle_gamma   60.00000000
_symmetry_Int_Tables_number   1
_chemical_formula_structural   BeIr4Se
_chemical_formula_sum   'Be1 Ir4 Se1'
_cell_volume   99.30854123
_cell_formula_units_Z   1
loop_
 _symmetry_equiv_pos_site_id
 _symmetry_equiv_pos_as_xyz
  1  'x, y, z'
loop_
 _atom_site_type_symbol
 _atom_site_label
 _atom_site_symmetry_multiplicity
 _atom_site_fract_x
 _atom_site_fract_y
 _atom_site_fract_z
 _atom_site_occupancy
  Be  Be0  1  0.00000000  0.00000000  0.00000000  1
  Ir  Ir1  1  0.62526026  0.12421784  0.62526026  1
  Ir  Ir2  1  0.12421784  0.62526026  0.62526026  1
  Ir  Ir3  1  0.62526026  0.62526026  0.62526026  1
  Ir  Ir4  1  0.62526026  0.62526026  0.12421784  1
  Se  Se5  1  0.24999995  0.24999995  0.24999995  1
