# generated using pymatgen
data_Fe3N
_symmetry_space_group_name_H-M   'P 1'
_cell_length_a   4.46132635
_cell_length_b   4.46144974
_cell_length_c   4.34782407
_cell_angle_alpha   90.00000000
_cell_angle_beta   90.00000000
_cell_angle_gamma   119.99908517
_symmetry_Int_Tables_number   1
_chemical_formula_structural   Fe3N
_chemical_formula_sum   'Fe6 N2'
_cell_volume   74.94567853
_cell_formula_units_Z   2
loop_
 _symmetry_equiv_pos_site_id
 _symmetry_equiv_pos_as_xyz
  1  'x, y, z'
loop_
 _atom_site_type_symbol
 _atom_site_label
 _atom_site_symmetry_multiplicity
 _atom_site_fract_x
 _atom_site_fract_y
 _atom_site_fract_z
 _atom_site_occupancy
  Fe  Fe0  1  -0.00000105  0.68081992  -0.00000587  1
  Fe  Fe1  1  0.31917854  0.31918029  0.00000587  1
  Fe  Fe2  1  0.68077435  -0.00000031  0.00000000  1
  Fe  Fe3  1  0.00000223  0.31918043  0.49999366  1
  Fe  Fe4  1  0.68082168  0.68081961  0.50000541  1
  Fe  Fe5  1  0.31922469  -0.00000015  0.49999953  1
  N  N6  1  0.66668390  0.33336811  0.24999977  1
  N  N7  1  0.33331632  0.66663179  0.74999930  1
