# generated using pymatgen
data_BeTe2Se
_symmetry_space_group_name_H-M   'P 1'
_cell_length_a   3.33602568
_cell_length_b   3.33602568
_cell_length_c   8.82731230
_cell_angle_alpha   90.00000000
_cell_angle_beta   90.00000000
_cell_angle_gamma   90.00000000
_symmetry_Int_Tables_number   1
_chemical_formula_structural   BeTe2Se
_chemical_formula_sum   'Be1 Te2 Se1'
_cell_volume   98.23975314
_cell_formula_units_Z   1
loop_
 _symmetry_equiv_pos_site_id
 _symmetry_equiv_pos_as_xyz
  1  'x, y, z'
loop_
 _atom_site_type_symbol
 _atom_site_label
 _atom_site_symmetry_multiplicity
 _atom_site_fract_x
 _atom_site_fract_y
 _atom_site_fract_z
 _atom_site_occupancy
  Be  Be0  1  0.00000000  0.00000000  0.66744837  1
  Te  Te1  1  0.00000000  0.00000000  0.93966212  1
  Te  Te2  1  0.50000065  0.50000065  0.29349260  1
  Se  Se3  1  0.50000065  0.50000065  0.59939726  1
