# generated using pymatgen
data_ScBeTe2
_symmetry_space_group_name_H-M   'P 1'
_cell_length_a   4.00158528
_cell_length_b   4.00158528
_cell_length_c   5.96410740
_cell_angle_alpha   90.00000000
_cell_angle_beta   90.00000000
_cell_angle_gamma   90.00000000
_symmetry_Int_Tables_number   1
_chemical_formula_structural   ScBeTe2
_chemical_formula_sum   'Sc1 Be1 Te2'
_cell_volume   95.50137187
_cell_formula_units_Z   1
loop_
 _symmetry_equiv_pos_site_id
 _symmetry_equiv_pos_as_xyz
  1  'x, y, z'
loop_
 _atom_site_type_symbol
 _atom_site_label
 _atom_site_symmetry_multiplicity
 _atom_site_fract_x
 _atom_site_fract_y
 _atom_site_fract_z
 _atom_site_occupancy
  Sc  Sc0  1  0.50000059  0.50000059  0.84190724  1
  Be  Be1  1  0.00000000  0.00000000  0.44468453  1
  Te  Te2  1  0.00000000  0.00000000  0.86137806  1
  Te  Te3  1  0.50000059  0.50000059  0.35203126  1
