# generated using pymatgen
data_NdCdGa
_symmetry_space_group_name_H-M   'P 1'
_cell_length_a   7.43584190
_cell_length_b   7.43575882
_cell_length_c   4.47452728
_cell_angle_alpha   90.00000000
_cell_angle_beta   90.00000000
_cell_angle_gamma   120.00036958
_symmetry_Int_Tables_number   1
_chemical_formula_structural   NdCdGa
_chemical_formula_sum   'Nd3 Cd3 Ga3'
_cell_volume   214.25532147
_cell_formula_units_Z   3
loop_
 _symmetry_equiv_pos_site_id
 _symmetry_equiv_pos_as_xyz
  1  'x, y, z'
loop_
 _atom_site_type_symbol
 _atom_site_label
 _atom_site_symmetry_multiplicity
 _atom_site_fract_x
 _atom_site_fract_y
 _atom_site_fract_z
 _atom_site_occupancy
  Nd  Nd0  1  0.00000143  0.41841906  0.50000030  1
  Nd  Nd1  1  0.58158255  0.58158106  0.50000030  1
  Nd  Nd2  1  0.41841654  -0.00000012  0.50000030  1
  Cd  Cd3  1  -0.00000312  0.75118780  0.00000000  1
  Cd  Cd4  1  0.24880916  0.24881241  0.00000000  1
  Cd  Cd5  1  0.75119729  -0.00000021  0.00000000  1
  Ga  Ga6  1  0.66666456  0.33332634  0.00000000  1
  Ga  Ga7  1  0.33333821  0.66667366  0.00000000  1
  Ga  Ga8  1  -0.00000566  0.00000000  0.50000030  1
