# generated using pymatgen
data_Ni3N
_symmetry_space_group_name_H-M   'P 1'
_cell_length_a   4.60314196
_cell_length_b   4.60232346
_cell_length_c   4.28189649
_cell_angle_alpha   90.00000000
_cell_angle_beta   90.00000000
_cell_angle_gamma   120.00588322
_symmetry_Int_Tables_number   1
_chemical_formula_structural   Ni3N
_chemical_formula_sum   'Ni6 N2'
_cell_volume   78.55476859
_cell_formula_units_Z   2
loop_
 _symmetry_equiv_pos_site_id
 _symmetry_equiv_pos_as_xyz
  1  'x, y, z'
loop_
 _atom_site_type_symbol
 _atom_site_label
 _atom_site_symmetry_multiplicity
 _atom_site_fract_x
 _atom_site_fract_y
 _atom_site_fract_z
 _atom_site_occupancy
  Ni  Ni0  1  -0.00000350  0.32817179  0.00003035  1
  Ni  Ni1  1  0.67182438  0.67182795  0.99997047  1
  Ni  Ni2  1  0.32824270  -0.00000016  0.00000000  1
  Ni  Ni3  1  0.00000238  0.67182827  0.50003076  1
  Ni  Ni4  1  0.32817455  0.32817163  0.49997006  1
  Ni  Ni5  1  0.67175735  -0.00000032  0.50000041  1
  N  N6  1  0.66668306  0.33336650  0.25000020  1
  N  N7  1  0.33331587  0.66663308  0.75000061  1
