# generated using pymatgen
data_ErPPd
_symmetry_space_group_name_H-M   'P 1'
_cell_length_a   3.97513985
_cell_length_b   6.89233866
_cell_length_c   7.75334763
_cell_angle_alpha   90.00000000
_cell_angle_beta   90.00000000
_cell_angle_gamma   90.00000000
_symmetry_Int_Tables_number   1
_chemical_formula_structural   ErPPd
_chemical_formula_sum   'Er4 P4 Pd4'
_cell_volume   212.42629629
_cell_formula_units_Z   4
loop_
 _symmetry_equiv_pos_site_id
 _symmetry_equiv_pos_as_xyz
  1  'x, y, z'
loop_
 _atom_site_type_symbol
 _atom_site_label
 _atom_site_symmetry_multiplicity
 _atom_site_fract_x
 _atom_site_fract_y
 _atom_site_fract_z
 _atom_site_occupancy
  Er  Er0  1  0.25000001  0.53358181  0.31164496  1
  Er  Er1  1  0.75000003  0.96641848  0.81164511  1
  Er  Er2  1  0.75000003  0.46641839  0.68835535  1
  Er  Er3  1  0.25000001  0.03358171  0.18835520  1
  P  P4  1  0.25000001  0.24533877  0.87655863  1
  P  P5  1  0.75000003  0.25466133  0.37655847  1
  P  P6  1  0.75000003  0.75466143  0.12344168  1
  P  P7  1  0.25000001  0.74533886  0.62344183  1
  Pd  Pd8  1  0.25000001  0.64785532  0.93885408  1
  Pd  Pd9  1  0.75000003  0.85214497  0.43885392  1
  Pd  Pd10  1  0.75000003  0.35214487  0.06114623  1
  Pd  Pd11  1  0.25000001  0.14785523  0.56114638  1
