# generated using pymatgen
data_TiBeRe2
_symmetry_space_group_name_H-M   'P 1'
_cell_length_a   4.87139602
_cell_length_b   4.87139602
_cell_length_c   4.87139602
_cell_angle_alpha   135.24563395
_cell_angle_beta   135.24563395
_cell_angle_gamma   65.14877853
_symmetry_Int_Tables_number   1
_chemical_formula_structural   TiBeRe2
_chemical_formula_sum   'Ti1 Be1 Re2'
_cell_volume   56.47554722
_cell_formula_units_Z   1
loop_
 _symmetry_equiv_pos_site_id
 _symmetry_equiv_pos_as_xyz
  1  'x, y, z'
loop_
 _atom_site_type_symbol
 _atom_site_label
 _atom_site_symmetry_multiplicity
 _atom_site_fract_x
 _atom_site_fract_y
 _atom_site_fract_z
 _atom_site_occupancy
  Ti  Ti0  1  0.24999988  0.74999961  0.49999973  1
  Be  Be1  1  0.74999961  0.24999988  0.49999973  1
  Re  Re2  1  0.00000000  0.00000000  0.00000000  1
  Re  Re3  1  0.49999976  0.49999976  0.00000000  1
