# generated using pymatgen
data_NaBH4
_symmetry_space_group_name_H-M   'P 1'
_cell_length_a   4.28451012
_cell_length_b   4.28451012
_cell_length_c   5.79675758
_cell_angle_alpha   90.00000000
_cell_angle_beta   90.00000000
_cell_angle_gamma   90.00000000
_symmetry_Int_Tables_number   1
_chemical_formula_structural   NaBH4
_chemical_formula_sum   'Na2 B2 H8'
_cell_volume   106.41123506
_cell_formula_units_Z   2
loop_
 _symmetry_equiv_pos_site_id
 _symmetry_equiv_pos_as_xyz
  1  'x, y, z'
loop_
 _atom_site_type_symbol
 _atom_site_label
 _atom_site_symmetry_multiplicity
 _atom_site_fract_x
 _atom_site_fract_y
 _atom_site_fract_z
 _atom_site_occupancy
  Na  Na0  1  0.00000000  0.00000000  0.00000000  1
  Na  Na1  1  0.49999999  0.49999999  0.50000021  1
  B  B2  1  0.00000000  0.00000000  0.50000021  1
  B  B3  1  0.49999999  0.49999999  0.00000000  1
  H  H4  1  0.00050447  0.76612485  0.37900004  1
  H  H5  1  0.99949550  0.23387512  0.37900004  1
  H  H6  1  0.76612485  0.99949550  0.62100038  1
  H  H7  1  0.23387512  0.00050447  0.62100038  1
  H  H8  1  0.49949552  0.26612487  0.12100017  1
  H  H9  1  0.50050445  0.73387511  0.12100017  1
  H  H10  1  0.73387511  0.49949552  0.87900024  1
  H  H11  1  0.26612487  0.50050445  0.87900024  1
