# generated using pymatgen
data_Ba2Cu3(BrO2)2
_symmetry_space_group_name_H-M   'P 1'
_cell_length_a   8.35659934
_cell_length_b   8.35659934
_cell_length_c   8.35659934
_cell_angle_alpha   140.98775701
_cell_angle_beta   140.98775701
_cell_angle_gamma   56.35655632
_symmetry_Int_Tables_number   1
_chemical_formula_structural   Ba2Cu3(BrO2)2
_chemical_formula_sum   'Ba2 Cu3 Br2 O4'
_cell_volume   229.41138941
_cell_formula_units_Z   1
loop_
 _symmetry_equiv_pos_site_id
 _symmetry_equiv_pos_as_xyz
  1  'x, y, z'
loop_
 _atom_site_type_symbol
 _atom_site_label
 _atom_site_symmetry_multiplicity
 _atom_site_fract_x
 _atom_site_fract_y
 _atom_site_fract_z
 _atom_site_occupancy
  Ba  Ba0  1  0.36783343  0.36783343  0.00000000  1
  Ba  Ba1  1  0.63216706  0.63216706  0.00000000  1
  Cu  Cu2  1  0.00000000  0.00000000  0.00000000  1
  Cu  Cu3  1  0.49999968  0.00000000  0.49999968  1
  Cu  Cu4  1  0.00000000  0.49999968  0.49999968  1
  Br  Br5  1  0.25000012  0.74999980  0.49999968  1
  Br  Br6  1  0.74999980  0.25000012  0.49999968  1
  O  O7  1  0.75702896  0.75702896  0.51405743  1
  O  O8  1  0.24297097  0.24297097  0.48594194  1
  O  O9  1  0.24297153  0.75702896  0.00000000  1
  O  O10  1  0.75702896  0.24297153  0.00000000  1
