# generated using pymatgen
data_HfTaNO3
_symmetry_space_group_name_H-M   'P 1'
_cell_length_a   3.22623145
_cell_length_b   5.56618434
_cell_length_c   6.47013176
_cell_angle_alpha   90.00000000
_cell_angle_beta   90.00000000
_cell_angle_gamma   90.00000000
_symmetry_Int_Tables_number   1
_chemical_formula_structural   HfTaNO3
_chemical_formula_sum   'Hf2 Ta2 N2 O6'
_cell_volume   116.18932542
_cell_formula_units_Z   2
loop_
 _symmetry_equiv_pos_site_id
 _symmetry_equiv_pos_as_xyz
  1  'x, y, z'
loop_
 _atom_site_type_symbol
 _atom_site_label
 _atom_site_symmetry_multiplicity
 _atom_site_fract_x
 _atom_site_fract_y
 _atom_site_fract_z
 _atom_site_occupancy
  Hf  Hf0  1  0.00000000  0.48150686  0.11135188  1
  Hf  Hf1  1  0.49999977  0.51849236  0.61135174  1
  Ta  Ta2  1  0.00000000  0.01656145  0.37720491  1
  Ta  Ta3  1  0.49999977  0.98343777  0.87720478  1
  N  N4  1  0.00000000  0.80224093  0.66765953  1
  N  N5  1  0.49999977  0.19775829  0.16765967  1
  O  O6  1  0.00000000  0.40023866  0.42608635  1
  O  O7  1  0.49999977  0.59976056  0.92608621  1
  O  O8  1  0.00000000  0.87290879  0.07225118  1
  O  O9  1  0.49999977  0.12709043  0.57225104  1
  O  O10  1  0.00000000  0.25283793  0.84454548  1
  O  O11  1  0.49999977  0.74716129  0.34454561  1
