# generated using pymatgen
data_La3Ir
_symmetry_space_group_name_H-M   'P 1'
_cell_length_a   6.61947538
_cell_length_b   7.42129144
_cell_length_c   10.12366631
_cell_angle_alpha   90.00000000
_cell_angle_beta   90.00000000
_cell_angle_gamma   90.00000000
_symmetry_Int_Tables_number   1
_chemical_formula_structural   La3Ir
_chemical_formula_sum   'La12 Ir4'
_cell_volume   497.32567423
_cell_formula_units_Z   4
loop_
 _symmetry_equiv_pos_site_id
 _symmetry_equiv_pos_as_xyz
  1  'x, y, z'
loop_
 _atom_site_type_symbol
 _atom_site_label
 _atom_site_symmetry_multiplicity
 _atom_site_fract_x
 _atom_site_fract_y
 _atom_site_fract_z
 _atom_site_occupancy
  La  La0  1  0.83001826  0.17278344  0.93370898  1
  La  La1  1  0.33001791  0.32721646  0.06629138  1
  La  La2  1  0.16998244  0.82721637  0.43370880  1
  La  La3  1  0.66998279  0.67278334  0.56629157  1
  La  La4  1  0.16998244  0.82721637  0.06629138  1
  La  La5  1  0.66998279  0.67278334  0.93370898  1
  La  La6  1  0.83001826  0.17278344  0.56629157  1
  La  La7  1  0.33001791  0.32721646  0.43370880  1
  La  La8  1  0.35066749  0.03624936  0.75000027  1
  La  La9  1  0.85066784  0.46375054  0.25000009  1
  La  La10  1  0.64933321  0.96375045  0.25000009  1
  La  La11  1  0.14933286  0.53624926  0.75000027  1
  Ir  Ir12  1  0.56752102  0.37709345  0.75000027  1
  Ir  Ir13  1  0.06752067  0.12290645  0.25000009  1
  Ir  Ir14  1  0.43247967  0.62290636  0.25000009  1
  Ir  Ir15  1  0.93248002  0.87709335  0.75000027  1
