# generated using pymatgen
data_Na2MnBe
_symmetry_space_group_name_H-M   'P 1'
_cell_length_a   2.97683209
_cell_length_b   2.97683209
_cell_length_c   8.81132176
_cell_angle_alpha   90.00000000
_cell_angle_beta   90.00000000
_cell_angle_gamma   90.00000000
_symmetry_Int_Tables_number   1
_chemical_formula_structural   Na2MnBe
_chemical_formula_sum   'Na2 Mn1 Be1'
_cell_volume   78.08178612
_cell_formula_units_Z   1
loop_
 _symmetry_equiv_pos_site_id
 _symmetry_equiv_pos_as_xyz
  1  'x, y, z'
loop_
 _atom_site_type_symbol
 _atom_site_label
 _atom_site_symmetry_multiplicity
 _atom_site_fract_x
 _atom_site_fract_y
 _atom_site_fract_z
 _atom_site_occupancy
  Na  Na0  1  0.00000000  0.00000000  0.94919816  1
  Na  Na1  1  0.49999965  0.49999965  0.31153517  1
  Mn  Mn2  1  0.49999965  0.49999965  0.67261832  1
  Be  Be3  1  0.00000000  0.00000000  0.56664685  1
