# generated using pymatgen
data_Sc4TaBe
_symmetry_space_group_name_H-M   'P 1'
_cell_length_a   5.57209606
_cell_length_b   5.57209606
_cell_length_c   5.57209606
_cell_angle_alpha   60.00000000
_cell_angle_beta   60.00000000
_cell_angle_gamma   60.00000000
_symmetry_Int_Tables_number   1
_chemical_formula_structural   Sc4TaBe
_chemical_formula_sum   'Sc4 Ta1 Be1'
_cell_volume   122.33220028
_cell_formula_units_Z   1
loop_
 _symmetry_equiv_pos_site_id
 _symmetry_equiv_pos_as_xyz
  1  'x, y, z'
loop_
 _atom_site_type_symbol
 _atom_site_label
 _atom_site_symmetry_multiplicity
 _atom_site_fract_x
 _atom_site_fract_y
 _atom_site_fract_z
 _atom_site_occupancy
  Sc  Sc0  1  0.12832681  0.62389125  0.62389125  1
  Sc  Sc1  1  0.62389125  0.62389125  0.62389125  1
  Sc  Sc2  1  0.62389125  0.12832681  0.62389125  1
  Sc  Sc3  1  0.62389125  0.62389125  0.12832681  1
  Ta  Ta4  1  0.25000020  0.25000020  0.25000020  1
  Be  Be5  1  0.00000000  0.00000000  0.00000000  1
