# generated using pymatgen
data_NaBH4
_symmetry_space_group_name_H-M   'P 1'
_cell_length_a   4.30251042
_cell_length_b   4.30251042
_cell_length_c   5.82432100
_cell_angle_alpha   90.00000000
_cell_angle_beta   90.00000000
_cell_angle_gamma   90.00000000
_symmetry_Int_Tables_number   1
_chemical_formula_structural   NaBH4
_chemical_formula_sum   'Na2 B2 H8'
_cell_volume   107.81747671
_cell_formula_units_Z   2
loop_
 _symmetry_equiv_pos_site_id
 _symmetry_equiv_pos_as_xyz
  1  'x, y, z'
loop_
 _atom_site_type_symbol
 _atom_site_label
 _atom_site_symmetry_multiplicity
 _atom_site_fract_x
 _atom_site_fract_y
 _atom_site_fract_z
 _atom_site_occupancy
  Na  Na0  1  0.00000000  0.00000000  0.00000000  1
  Na  Na1  1  0.49999995  0.49999995  0.49999991  1
  B  B2  1  0.00000000  0.00000000  0.49999991  1
  B  B3  1  0.49999995  0.49999995  0.00000000  1
  H  H4  1  0.23351477  -0.00079095  0.37922788  1
  H  H5  1  0.76648513  0.00079095  0.37922788  1
  H  H6  1  -0.00079095  0.76648513  0.62077195  1
  H  H7  1  0.00079095  0.23351477  0.62077195  1
  H  H8  1  0.73351472  0.50079090  0.12077203  1
  H  H9  1  0.26648518  0.49920900  0.12077203  1
  H  H10  1  0.49920900  0.73351472  0.87922779  1
  H  H11  1  0.50079090  0.26648518  0.87922779  1
