# generated using pymatgen
data_TaBeRe
_symmetry_space_group_name_H-M   'P 1'
_cell_length_a   3.10612869
_cell_length_b   3.10612869
_cell_length_c   5.10823529
_cell_angle_alpha   90.00000000
_cell_angle_beta   90.00000000
_cell_angle_gamma   120.00001018
_symmetry_Int_Tables_number   1
_chemical_formula_structural   TaBeRe
_chemical_formula_sum   'Ta1 Be1 Re1'
_cell_volume   42.68156839
_cell_formula_units_Z   1
loop_
 _symmetry_equiv_pos_site_id
 _symmetry_equiv_pos_as_xyz
  1  'x, y, z'
loop_
 _atom_site_type_symbol
 _atom_site_label
 _atom_site_symmetry_multiplicity
 _atom_site_fract_x
 _atom_site_fract_y
 _atom_site_fract_z
 _atom_site_occupancy
  Ta  Ta0  1  0.66666590  0.33333146  0.30937506  1
  Be  Be1  1  0.00000000  0.00000000  0.98493677  1
  Re  Re2  1  0.33333146  0.66666590  0.70569002  1
