# generated using pymatgen
data_Be2CrHg
_symmetry_space_group_name_H-M   'P 1'
_cell_length_a   2.98812111
_cell_length_b   2.98812111
_cell_length_c   5.65863313
_cell_angle_alpha   90.00000000
_cell_angle_beta   90.00000000
_cell_angle_gamma   90.00000000
_symmetry_Int_Tables_number   1
_chemical_formula_structural   Be2CrHg
_chemical_formula_sum   'Be2 Cr1 Hg1'
_cell_volume   50.52518690
_cell_formula_units_Z   1
loop_
 _symmetry_equiv_pos_site_id
 _symmetry_equiv_pos_as_xyz
  1  'x, y, z'
loop_
 _atom_site_type_symbol
 _atom_site_label
 _atom_site_symmetry_multiplicity
 _atom_site_fract_x
 _atom_site_fract_y
 _atom_site_fract_z
 _atom_site_occupancy
  Be  Be0  1  0.00000000  0.00000000  0.81823584  1
  Be  Be1  1  0.00000000  0.00000000  0.18176360  1
  Cr  Cr2  1  0.49999981  0.49999981  0.00000000  1
  Hg  Hg3  1  0.49999981  0.49999981  0.49999972  1
