# generated using pymatgen
data_Sm(SiIr)2
_symmetry_space_group_name_H-M   'P 1'
_cell_length_a   4.18039888
_cell_length_b   4.18039888
_cell_length_c   9.87239260
_cell_angle_alpha   90.00000000
_cell_angle_beta   90.00000000
_cell_angle_gamma   90.00000000
_symmetry_Int_Tables_number   1
_chemical_formula_structural   Sm(SiIr)2
_chemical_formula_sum   'Sm2 Si4 Ir4'
_cell_volume   172.52731517
_cell_formula_units_Z   2
loop_
 _symmetry_equiv_pos_site_id
 _symmetry_equiv_pos_as_xyz
  1  'x, y, z'
loop_
 _atom_site_type_symbol
 _atom_site_label
 _atom_site_symmetry_multiplicity
 _atom_site_fract_x
 _atom_site_fract_y
 _atom_site_fract_z
 _atom_site_occupancy
  Sm  Sm0  1  0.25000007  0.25000007  0.74525035  1
  Sm  Sm1  1  0.75000020  0.75000020  0.25474939  1
  Si  Si2  1  0.75000020  0.25000007  0.49999987  1
  Si  Si3  1  0.25000007  0.75000020  0.49999987  1
  Si  Si4  1  0.25000007  0.25000007  0.13034066  1
  Si  Si5  1  0.75000020  0.75000020  0.86965907  1
  Ir  Ir6  1  0.75000020  0.25000007  0.00000000  1
  Ir  Ir7  1  0.25000007  0.75000020  0.00000000  1
  Ir  Ir8  1  0.25000007  0.25000007  0.37292206  1
  Ir  Ir9  1  0.75000020  0.75000020  0.62707768  1
