# generated using pymatgen
data_BeCo2Pt
_symmetry_space_group_name_H-M   'P 1'
_cell_length_a   4.25406718
_cell_length_b   4.25406718
_cell_length_c   4.25406718
_cell_angle_alpha   128.12981615
_cell_angle_beta   128.12981615
_cell_angle_gamma   76.41482535
_symmetry_Int_Tables_number   1
_chemical_formula_structural   BeCo2Pt
_chemical_formula_sum   'Be1 Co2 Pt1'
_cell_volume   46.28452509
_cell_formula_units_Z   1
loop_
 _symmetry_equiv_pos_site_id
 _symmetry_equiv_pos_as_xyz
  1  'x, y, z'
loop_
 _atom_site_type_symbol
 _atom_site_label
 _atom_site_symmetry_multiplicity
 _atom_site_fract_x
 _atom_site_fract_y
 _atom_site_fract_z
 _atom_site_occupancy
  Be  Be0  1  0.75000082  0.25000018  0.50000065  1
  Co  Co1  1  0.00000000  0.00000000  0.00000000  1
  Co  Co2  1  0.25000018  0.75000082  0.50000065  1
  Pt  Pt3  1  0.50000035  0.50000035  0.00000000  1
