# generated using pymatgen
data_MnBeCr2
_symmetry_space_group_name_H-M   'P 1'
_cell_length_a   4.52669907
_cell_length_b   4.52669907
_cell_length_c   4.52669907
_cell_angle_alpha   137.33723860
_cell_angle_beta   137.33723860
_cell_angle_gamma   61.91957993
_symmetry_Int_Tables_number   1
_chemical_formula_structural   MnBeCr2
_chemical_formula_sum   'Mn1 Be1 Cr2'
_cell_volume   42.10045755
_cell_formula_units_Z   1
loop_
 _symmetry_equiv_pos_site_id
 _symmetry_equiv_pos_as_xyz
  1  'x, y, z'
loop_
 _atom_site_type_symbol
 _atom_site_label
 _atom_site_symmetry_multiplicity
 _atom_site_fract_x
 _atom_site_fract_y
 _atom_site_fract_z
 _atom_site_occupancy
  Mn  Mn0  1  0.49999953  0.49999953  0.00000000  1
  Be  Be1  1  0.75000017  0.24999976  0.50000041  1
  Cr  Cr2  1  0.00000000  0.00000000  0.00000000  1
  Cr  Cr3  1  0.24999976  0.75000017  0.50000041  1
