# generated using pymatgen
data_BeInPd
_symmetry_space_group_name_H-M   'P 1'
_cell_length_a   5.13462419
_cell_length_b   5.13462419
_cell_length_c   5.13462419
_cell_angle_alpha   144.11844797
_cell_angle_beta   144.11844797
_cell_angle_gamma   51.65020805
_symmetry_Int_Tables_number   1
_chemical_formula_structural   BeInPd
_chemical_formula_sum   'Be1 In1 Pd1'
_cell_volume   46.24735490
_cell_formula_units_Z   1
loop_
 _symmetry_equiv_pos_site_id
 _symmetry_equiv_pos_as_xyz
  1  'x, y, z'
loop_
 _atom_site_type_symbol
 _atom_site_label
 _atom_site_symmetry_multiplicity
 _atom_site_fract_x
 _atom_site_fract_y
 _atom_site_fract_z
 _atom_site_occupancy
  Be  Be0  1  0.03821091  0.03821091  0.00000000  1
  In  In1  1  0.33247635  0.33247635  0.00000000  1
  Pd  Pd2  1  0.62931296  0.62931296  0.00000000  1
