# generated using pymatgen
data_In2Cu
_symmetry_space_group_name_H-M   'P 1'
_cell_length_a   5.67549036
_cell_length_b   5.67549036
_cell_length_c   5.67549036
_cell_angle_alpha   101.73485863
_cell_angle_beta   101.73485863
_cell_angle_gamma   126.38683798
_symmetry_Int_Tables_number   1
_chemical_formula_structural   In2Cu
_chemical_formula_sum   'In4 Cu2'
_cell_volume   131.35513899
_cell_formula_units_Z   2
loop_
 _symmetry_equiv_pos_site_id
 _symmetry_equiv_pos_as_xyz
  1  'x, y, z'
loop_
 _atom_site_type_symbol
 _atom_site_label
 _atom_site_symmetry_multiplicity
 _atom_site_fract_x
 _atom_site_fract_y
 _atom_site_fract_z
 _atom_site_occupancy
  In  In0  1  0.15509251  0.34490782  0.50000033  1
  In  In1  1  0.84490723  0.65509193  0.50000033  1
  In  In2  1  0.34490691  0.84490723  0.18981531  1
  In  In3  1  0.65509284  0.15509251  0.81018535  1
  Cu  Cu4  1  0.49999942  0.49999942  0.00000000  1
  Cu  Cu5  1  0.00000000  0.00000000  0.00000000  1
