# generated using pymatgen
data_ZrBeNb
_symmetry_space_group_name_H-M   'P 1'
_cell_length_a   3.17153709
_cell_length_b   3.17153709
_cell_length_c   6.05635909
_cell_angle_alpha   90.00000000
_cell_angle_beta   90.00000000
_cell_angle_gamma   119.99999499
_symmetry_Int_Tables_number   1
_chemical_formula_structural   ZrBeNb
_chemical_formula_sum   'Zr1 Be1 Nb1'
_cell_volume   52.75721500
_cell_formula_units_Z   1
loop_
 _symmetry_equiv_pos_site_id
 _symmetry_equiv_pos_as_xyz
  1  'x, y, z'
loop_
 _atom_site_type_symbol
 _atom_site_label
 _atom_site_symmetry_multiplicity
 _atom_site_fract_x
 _atom_site_fract_y
 _atom_site_fract_z
 _atom_site_occupancy
  Zr  Zr0  1  0.33333352  0.66666732  0.69495270  1
  Be  Be1  1  0.00000000  -0.00000000  0.01105420  1
  Nb  Nb2  1  0.66666732  0.33333352  0.29399226  1
