# generated using pymatgen
data_Cu2As2O7
_symmetry_space_group_name_H-M   'P 1'
_cell_length_a   5.51625218
_cell_length_b   5.51625218
_cell_length_c   4.93617285
_cell_angle_alpha   76.47284955
_cell_angle_beta   76.47284955
_cell_angle_gamma   98.02818124
_symmetry_Int_Tables_number   1
_chemical_formula_structural   Cu2As2O7
_chemical_formula_sum   'Cu2 As2 O7'
_cell_volume   138.95105864
_cell_formula_units_Z   1
loop_
 _symmetry_equiv_pos_site_id
 _symmetry_equiv_pos_as_xyz
  1  'x, y, z'
loop_
 _atom_site_type_symbol
 _atom_site_label
 _atom_site_symmetry_multiplicity
 _atom_site_fract_x
 _atom_site_fract_y
 _atom_site_fract_z
 _atom_site_occupancy
  Cu  Cu0  1  0.31294134  0.68705859  0.50000076  1
  Cu  Cu1  1  0.68705859  0.31294134  0.50000076  1
  As  As2  1  0.79016712  0.79016712  0.90340376  1
  As  As3  1  0.20983281  0.20983281  0.09659776  1
  O  O4  1  0.00000000  0.00000000  0.00000000  1
  O  O5  1  0.59454976  0.59454976  0.23397632  1
  O  O6  1  0.40545017  0.40545017  0.76602520  1
  O  O7  1  0.95838992  0.61803555  0.71336846  1
  O  O8  1  0.38196438  0.04161001  0.28663306  1
  O  O9  1  0.04161001  0.38196438  0.28663306  1
  O  O10  1  0.61803555  0.95838992  0.71336846  1
