# generated using pymatgen
data_NaCu3Te2
_symmetry_space_group_name_H-M   'P 1'
_cell_length_a   8.24913305
_cell_length_b   8.24913305
_cell_length_c   8.24913305
_cell_angle_alpha   30.04907851
_cell_angle_beta   30.04907851
_cell_angle_gamma   30.04907851
_symmetry_Int_Tables_number   1
_chemical_formula_structural   NaCu3Te2
_chemical_formula_sum   'Na1 Cu3 Te2'
_cell_volume   124.68401864
_cell_formula_units_Z   1
loop_
 _symmetry_equiv_pos_site_id
 _symmetry_equiv_pos_as_xyz
  1  'x, y, z'
loop_
 _atom_site_type_symbol
 _atom_site_label
 _atom_site_symmetry_multiplicity
 _atom_site_fract_x
 _atom_site_fract_y
 _atom_site_fract_z
 _atom_site_occupancy
  Na  Na0  1  0.99141091  0.99141091  0.99141275  1
  Cu  Cu1  1  0.12420540  0.12420540  0.12420563  1
  Cu  Cu2  1  0.85858693  0.85858693  0.85858852  1
  Cu  Cu3  1  0.49148522  0.49148522  0.49148613  1
  Te  Te4  1  0.23934038  0.23934038  0.23934083  1
  Te  Te5  1  0.74346879  0.74346879  0.74347017  1
