# generated using pymatgen
data_TiCrAs
_symmetry_space_group_name_H-M   'P 1'
_cell_length_a   6.62645035
_cell_length_b   6.62645035
_cell_length_c   3.35010538
_cell_angle_alpha   90.00000000
_cell_angle_beta   90.00000000
_cell_angle_gamma   120.00000008
_symmetry_Int_Tables_number   1
_chemical_formula_structural   TiCrAs
_chemical_formula_sum   'Ti3 Cr3 As3'
_cell_volume   127.39459323
_cell_formula_units_Z   3
loop_
 _symmetry_equiv_pos_site_id
 _symmetry_equiv_pos_as_xyz
  1  'x, y, z'
loop_
 _atom_site_type_symbol
 _atom_site_label
 _atom_site_symmetry_multiplicity
 _atom_site_fract_x
 _atom_site_fract_y
 _atom_site_fract_z
 _atom_site_occupancy
  Ti  Ti0  1  0.59670019  0.00000066  0.50000069  1
  Ti  Ti1  1  0.00000066  0.59670019  0.50000069  1
  Ti  Ti2  1  0.40330061  0.40330061  0.50000069  1
  Cr  Cr3  1  0.25684992  0.00000028  0.00000000  1
  Cr  Cr4  1  0.00000028  0.25684992  0.00000000  1
  Cr  Cr5  1  0.74315126  0.74315126  0.00000000  1
  As  As6  1  0.33333385  0.66666760  0.00000000  1
  As  As7  1  0.66666760  0.33333385  0.00000000  1
  As  As8  1  0.00000000  0.00000000  0.50000069  1
