# generated using pymatgen
data_CaBeFe2
_symmetry_space_group_name_H-M   'P 1'
_cell_length_a   2.85425757
_cell_length_b   2.85425757
_cell_length_c   6.67141137
_cell_angle_alpha   90.00000000
_cell_angle_beta   90.00000000
_cell_angle_gamma   90.00000000
_symmetry_Int_Tables_number   1
_chemical_formula_structural   CaBeFe2
_chemical_formula_sum   'Ca1 Be1 Fe2'
_cell_volume   54.35056243
_cell_formula_units_Z   1
loop_
 _symmetry_equiv_pos_site_id
 _symmetry_equiv_pos_as_xyz
  1  'x, y, z'
loop_
 _atom_site_type_symbol
 _atom_site_label
 _atom_site_symmetry_multiplicity
 _atom_site_fract_x
 _atom_site_fract_y
 _atom_site_fract_z
 _atom_site_occupancy
  Ca  Ca0  1  0.50000043  0.50000043  0.75123449  1
  Be  Be1  1  0.00000000  0.00000000  0.41542148  1
  Fe  Fe2  1  0.00000000  0.00000000  0.07209642  1
  Fe  Fe3  1  0.50000043  0.50000043  0.26124730  1
