# generated using pymatgen
data_BeCuRu
_symmetry_space_group_name_H-M   'P 1'
_cell_length_a   2.62023118
_cell_length_b   2.62023118
_cell_length_c   5.94134267
_cell_angle_alpha   90.00000000
_cell_angle_beta   90.00000000
_cell_angle_gamma   120.00001533
_symmetry_Int_Tables_number   1
_chemical_formula_structural   BeCuRu
_chemical_formula_sum   'Be1 Cu1 Ru1'
_cell_volume   35.32599352
_cell_formula_units_Z   1
loop_
 _symmetry_equiv_pos_site_id
 _symmetry_equiv_pos_as_xyz
  1  'x, y, z'
loop_
 _atom_site_type_symbol
 _atom_site_label
 _atom_site_symmetry_multiplicity
 _atom_site_fract_x
 _atom_site_fract_y
 _atom_site_fract_z
 _atom_site_occupancy
  Be  Be0  1  0.00000000  0.00000000  0.99985480  1
  Cu  Cu1  1  0.33333457  0.66666902  0.68901664  1
  Ru  Ru2  1  0.66666902  0.33333457  0.31112766  1
