# generated using pymatgen
data_La5Tl3
_symmetry_space_group_name_H-M   'P 1'
_cell_length_a   9.68132334
_cell_length_b   9.68132334
_cell_length_c   9.68132334
_cell_angle_alpha   96.43888174
_cell_angle_beta   96.43888174
_cell_angle_gamma   140.86975822
_symmetry_Int_Tables_number   1
_chemical_formula_structural   La5Tl3
_chemical_formula_sum   'La10 Tl6'
_cell_volume   539.58976175
_cell_formula_units_Z   2
loop_
 _symmetry_equiv_pos_site_id
 _symmetry_equiv_pos_as_xyz
  1  'x, y, z'
loop_
 _atom_site_type_symbol
 _atom_site_label
 _atom_site_symmetry_multiplicity
 _atom_site_fract_x
 _atom_site_fract_y
 _atom_site_fract_z
 _atom_site_occupancy
  La  La0  1  0.21934306  0.08599621  0.30533928  1
  La  La1  1  0.78065678  0.91400363  0.69466117  1
  La  La2  1  0.08599621  0.78065738  0.86665360  1
  La  La3  1  0.91400363  0.21934246  0.13334685  1
  La  La4  1  0.71934269  0.41400341  0.13334685  1
  La  La5  1  0.28065716  0.58599644  0.86665360  1
  La  La6  1  0.58599584  0.71934269  0.30533928  1
  La  La7  1  0.41400401  0.28065716  0.69466117  1
  La  La8  1  0.75000003  0.24999981  0.50000022  1
  La  La9  1  0.24999981  0.75000003  0.50000022  1
  Tl  Tl10  1  0.66098027  0.16098005  0.82196031  1
  Tl  Tl11  1  0.33901958  0.83901980  0.17804013  1
  Tl  Tl12  1  0.16098005  0.33902018  0.50000022  1
  Tl  Tl13  1  0.83901980  0.66097967  0.50000022  1
  Tl  Tl14  1  0.24999981  0.24999981  0.00000000  1
  Tl  Tl15  1  0.74999944  0.74999944  0.00000000  1
