# generated using pymatgen
data_Ba4GaP
_symmetry_space_group_name_H-M   'P 1'
_cell_length_a   6.88891819
_cell_length_b   6.88891819
_cell_length_c   6.88891819
_cell_angle_alpha   60.00000000
_cell_angle_beta   60.00000000
_cell_angle_gamma   60.00000000
_symmetry_Int_Tables_number   1
_chemical_formula_structural   Ba4GaP
_chemical_formula_sum   'Ba4 Ga1 P1'
_cell_volume   231.17351862
_cell_formula_units_Z   1
loop_
 _symmetry_equiv_pos_site_id
 _symmetry_equiv_pos_as_xyz
  1  'x, y, z'
loop_
 _atom_site_type_symbol
 _atom_site_label
 _atom_site_symmetry_multiplicity
 _atom_site_fract_x
 _atom_site_fract_y
 _atom_site_fract_z
 _atom_site_occupancy
  Ba  Ba0  1  0.12161256  0.62612904  0.62612904  1
  Ba  Ba1  1  0.62612904  0.62612904  0.62612904  1
  Ba  Ba2  1  0.62612904  0.12161256  0.62612904  1
  Ba  Ba3  1  0.62612904  0.62612904  0.12161256  1
  Ga  Ga4  1  0.24999996  0.24999996  0.24999996  1
  P  P5  1  0.00000000  0.00000000  0.00000000  1
