# generated using pymatgen
data_Be2MoP
_symmetry_space_group_name_H-M   'P 1'
_cell_length_a   4.57186607
_cell_length_b   4.57186607
_cell_length_c   4.57186607
_cell_angle_alpha   136.82478853
_cell_angle_beta   136.82478853
_cell_angle_gamma   62.70774406
_symmetry_Int_Tables_number   1
_chemical_formula_structural   Be2MoP
_chemical_formula_sum   'Be2 Mo1 P1'
_cell_volume   44.18734874
_cell_formula_units_Z   1
loop_
 _symmetry_equiv_pos_site_id
 _symmetry_equiv_pos_as_xyz
  1  'x, y, z'
loop_
 _atom_site_type_symbol
 _atom_site_label
 _atom_site_symmetry_multiplicity
 _atom_site_fract_x
 _atom_site_fract_y
 _atom_site_fract_z
 _atom_site_occupancy
  Be  Be0  1  0.00000000  0.00000000  0.00000000  1
  Be  Be1  1  0.25000023  0.75000125  0.50000102  1
  Mo  Mo2  1  0.50000047  0.50000047  0.00000000  1
  P  P3  1  0.75000125  0.25000023  0.50000102  1
