# generated using pymatgen
data_TaBeW
_symmetry_space_group_name_H-M   'P 1'
_cell_length_a   2.80600366
_cell_length_b   2.80600366
_cell_length_c   6.66299744
_cell_angle_alpha   90.00000000
_cell_angle_beta   90.00000000
_cell_angle_gamma   119.99998631
_symmetry_Int_Tables_number   1
_chemical_formula_structural   TaBeW
_chemical_formula_sum   'Ta1 Be1 W1'
_cell_volume   45.43356391
_cell_formula_units_Z   1
loop_
 _symmetry_equiv_pos_site_id
 _symmetry_equiv_pos_as_xyz
  1  'x, y, z'
loop_
 _atom_site_type_symbol
 _atom_site_label
 _atom_site_symmetry_multiplicity
 _atom_site_fract_x
 _atom_site_fract_y
 _atom_site_fract_z
 _atom_site_occupancy
  Ta  Ta0  1  0.33333226  0.66666622  0.68451524  1
  Be  Be1  1  0.00000000  0.00000000  0.00691874  1
  W  W2  1  0.66666622  0.33333226  0.30856640  1
