# generated using pymatgen
data_TlV5S8
_symmetry_space_group_name_H-M   'P 1'
_cell_length_a   8.91414088
_cell_length_b   8.91414088
_cell_length_c   8.52350014
_cell_angle_alpha   75.98399457
_cell_angle_beta   75.98399457
_cell_angle_gamma   21.14244497
_symmetry_Int_Tables_number   1
_chemical_formula_structural   TlV5S8
_chemical_formula_sum   'Tl1 V5 S8'
_cell_volume   236.76120277
_cell_formula_units_Z   1
loop_
 _symmetry_equiv_pos_site_id
 _symmetry_equiv_pos_as_xyz
  1  'x, y, z'
loop_
 _atom_site_type_symbol
 _atom_site_label
 _atom_site_symmetry_multiplicity
 _atom_site_fract_x
 _atom_site_fract_y
 _atom_site_fract_z
 _atom_site_occupancy
  Tl  Tl0  1  0.49999976  0.49999976  0.00000049  1
  V  V1  1  0.00000011  0.00000011  0.50000003  1
  V  V2  1  0.71098338  0.71098338  0.14125991  1
  V  V3  1  0.28901637  0.28901637  0.85874113  1
  V  V4  1  0.64806645  0.64806645  0.50387713  1
  V  V5  1  0.35193329  0.35193329  0.49612391  1
  S  S6  1  0.83970183  0.83970183  0.00107670  1
  S  S7  1  0.16029770  0.16029770  -0.00107571  1
  S  S8  1  0.75898979  0.75898979  0.66000272  1
  S  S9  1  0.24100995  0.24100995  0.33999833  1
  S  S10  1  0.91442176  0.91442176  0.31913086  1
  S  S11  1  0.08557799  0.08557799  0.68087018  1
  S  S12  1  0.57362446  0.57362446  0.32024529  1
  S  S13  1  0.42637528  0.42637528  0.67975576  1
