# generated using pymatgen
data_LaMnGe
_symmetry_space_group_name_H-M   'P 1'
_cell_length_a   4.13842240
_cell_length_b   4.13842240
_cell_length_c   7.40629331
_cell_angle_alpha   90.00000000
_cell_angle_beta   90.00000000
_cell_angle_gamma   90.00000000
_symmetry_Int_Tables_number   1
_chemical_formula_structural   LaMnGe
_chemical_formula_sum   'La2 Mn2 Ge2'
_cell_volume   126.84417823
_cell_formula_units_Z   2
loop_
 _symmetry_equiv_pos_site_id
 _symmetry_equiv_pos_as_xyz
  1  'x, y, z'
loop_
 _atom_site_type_symbol
 _atom_site_label
 _atom_site_symmetry_multiplicity
 _atom_site_fract_x
 _atom_site_fract_y
 _atom_site_fract_z
 _atom_site_occupancy
  La  La0  1  0.24999986  0.24999986  0.67674439  1
  La  La1  1  0.74999957  0.74999957  0.32325516  1
  Mn  Mn2  1  0.74999957  0.24999986  0.00000000  1
  Mn  Mn3  1  0.24999986  0.74999957  0.00000000  1
  Ge  Ge4  1  0.24999986  0.24999986  0.18972191  1
  Ge  Ge5  1  0.74999957  0.74999957  0.81027764  1
