# generated using pymatgen
data_BeFe2Ni
_symmetry_space_group_name_H-M   'P 1'
_cell_length_a   4.39348307
_cell_length_b   4.39348307
_cell_length_c   4.39348307
_cell_angle_alpha   135.36856217
_cell_angle_beta   135.36856217
_cell_angle_gamma   64.95807353
_symmetry_Int_Tables_number   1
_chemical_formula_structural   BeFe2Ni
_chemical_formula_sum   'Be1 Fe2 Ni1'
_cell_volume   41.25924264
_cell_formula_units_Z   1
loop_
 _symmetry_equiv_pos_site_id
 _symmetry_equiv_pos_as_xyz
  1  'x, y, z'
loop_
 _atom_site_type_symbol
 _atom_site_label
 _atom_site_symmetry_multiplicity
 _atom_site_fract_x
 _atom_site_fract_y
 _atom_site_fract_z
 _atom_site_occupancy
  Be  Be0  1  0.75000023  0.25000003  0.50000020  1
  Fe  Fe1  1  0.00000000  0.00000000  0.00000000  1
  Fe  Fe2  1  0.50000007  0.50000007  0.00000000  1
  Ni  Ni3  1  0.25000003  0.75000023  0.50000020  1
