# generated using pymatgen
data_BeCu2Re
_symmetry_space_group_name_H-M   'P 1'
_cell_length_a   4.68106413
_cell_length_b   4.68106413
_cell_length_c   4.68106413
_cell_angle_alpha   136.62776851
_cell_angle_beta   136.62776851
_cell_angle_gamma   63.01127408
_symmetry_Int_Tables_number   1
_chemical_formula_structural   BeCu2Re
_chemical_formula_sum   'Be1 Cu2 Re1'
_cell_volume   47.76535477
_cell_formula_units_Z   1
loop_
 _symmetry_equiv_pos_site_id
 _symmetry_equiv_pos_as_xyz
  1  'x, y, z'
loop_
 _atom_site_type_symbol
 _atom_site_label
 _atom_site_symmetry_multiplicity
 _atom_site_fract_x
 _atom_site_fract_y
 _atom_site_fract_z
 _atom_site_occupancy
  Be  Be0  1  0.74999860  0.24999984  0.49999876  1
  Cu  Cu1  1  0.00000000  0.00000000  0.00000000  1
  Cu  Cu2  1  0.49999967  0.49999967  0.00000000  1
  Re  Re3  1  0.24999984  0.74999860  0.49999876  1
