# generated using pymatgen
data_LaAl4
_symmetry_space_group_name_H-M   'P 1'
_cell_length_a   8.88871736
_cell_length_b   8.88871736
_cell_length_c   8.88871736
_cell_angle_alpha   151.50841792
_cell_angle_beta   102.05594384
_cell_angle_gamma   84.96559822
_symmetry_Int_Tables_number   1
_chemical_formula_structural   LaAl4
_chemical_formula_sum   'La3 Al12'
_cell_volume   320.63982187
_cell_formula_units_Z   3
loop_
 _symmetry_equiv_pos_site_id
 _symmetry_equiv_pos_as_xyz
  1  'x, y, z'
loop_
 _atom_site_type_symbol
 _atom_site_label
 _atom_site_symmetry_multiplicity
 _atom_site_fract_x
 _atom_site_fract_y
 _atom_site_fract_z
 _atom_site_occupancy
  La  La0  1  0.99917997  0.00000000  0.99917997  1
  La  La1  1  0.33247803  0.33339357  0.99908255  1
  La  La2  1  0.66568898  0.66660453  0.99908255  1
  Al  Al3  1  0.38448773  -0.00000000  0.38448773  1
  Al  Al4  1  0.61410918  -0.00000000  0.61410918  1
  Al  Al5  1  0.74919697  0.49999982  0.24919715  1
  Al  Al6  1  0.24936988  0.49999905  0.74936893  1
  Al  Al7  1  0.08249661  0.83331582  0.24917889  1
  Al  Al8  1  0.41586307  0.16668305  0.24918002  1
  Al  Al9  1  0.05119490  0.66666412  0.38452887  1
  Al  Al10  1  0.71786474  0.33333474  0.38453000  1
  Al  Al11  1  0.28081951  0.66669437  0.61412323  1
  Al  Al12  1  0.94742886  0.33330450  0.61412436  1
  Al  Al13  1  0.58276432  0.83335205  0.74941036  1
  Al  Al14  1  0.91605831  0.16664681  0.74941149  1
