# generated using pymatgen
data_SrMnBe
_symmetry_space_group_name_H-M   'P 1'
_cell_length_a   6.00664982
_cell_length_b   6.00664982
_cell_length_c   6.00664982
_cell_angle_alpha   148.33184367
_cell_angle_beta   148.33184367
_cell_angle_gamma   45.39573557
_symmetry_Int_Tables_number   1
_chemical_formula_structural   SrMnBe
_chemical_formula_sum   'Sr1 Mn1 Be1'
_cell_volume   59.53932180
_cell_formula_units_Z   1
loop_
 _symmetry_equiv_pos_site_id
 _symmetry_equiv_pos_as_xyz
  1  'x, y, z'
loop_
 _atom_site_type_symbol
 _atom_site_label
 _atom_site_symmetry_multiplicity
 _atom_site_fract_x
 _atom_site_fract_y
 _atom_site_fract_z
 _atom_site_occupancy
  Sr  Sr0  1  0.66430470  0.66430470  0.00000000  1
  Mn  Mn1  1  0.38752574  0.38752574  0.00000000  1
  Be  Be2  1  0.94816974  0.94816974  0.00000000  1
