# generated using pymatgen
data_Co2As
_symmetry_space_group_name_H-M   'P 1'
_cell_length_a   5.99944999
_cell_length_b   5.99951434
_cell_length_c   3.53093078
_cell_angle_alpha   90.00000000
_cell_angle_beta   90.00000000
_cell_angle_gamma   119.99964181
_symmetry_Int_Tables_number   1
_chemical_formula_structural   Co2As
_chemical_formula_sum   'Co6 As3'
_cell_volume   110.06492355
_cell_formula_units_Z   3
loop_
 _symmetry_equiv_pos_site_id
 _symmetry_equiv_pos_as_xyz
  1  'x, y, z'
loop_
 _atom_site_type_symbol
 _atom_site_label
 _atom_site_symmetry_multiplicity
 _atom_site_fract_x
 _atom_site_fract_y
 _atom_site_fract_z
 _atom_site_occupancy
  Co  Co0  1  0.00000033  0.74304378  0.00000000  1
  Co  Co1  1  0.25695609  0.25695567  0.00000000  1
  Co  Co2  1  0.74304679  -0.00000089  0.00000000  1
  Co  Co3  1  0.00001150  0.40064242  0.49999989  1
  Co  Co4  1  0.59936878  0.59935662  0.49999989  1
  Co  Co5  1  0.40062087  -0.00000048  0.49999989  1
  As  As6  1  0.66666660  0.33333112  0.00000000  1
  As  As7  1  0.33333486  0.66666743  0.00000000  1
  As  As8  1  -0.00000614  0.00000000  0.49999989  1
