# generated using pymatgen
data_In3Pd5
_symmetry_space_group_name_H-M   'P 1'
_cell_length_a   4.27110636
_cell_length_b   5.72161151
_cell_length_c   11.25816544
_cell_angle_alpha   90.00000000
_cell_angle_beta   90.00000000
_cell_angle_gamma   90.00000000
_symmetry_Int_Tables_number   1
_chemical_formula_structural   In3Pd5
_chemical_formula_sum   'In6 Pd10'
_cell_volume   275.12267089
_cell_formula_units_Z   2
loop_
 _symmetry_equiv_pos_site_id
 _symmetry_equiv_pos_as_xyz
  1  'x, y, z'
loop_
 _atom_site_type_symbol
 _atom_site_label
 _atom_site_symmetry_multiplicity
 _atom_site_fract_x
 _atom_site_fract_y
 _atom_site_fract_z
 _atom_site_occupancy
  In  In0  1  0.00000000  0.00000000  0.00000000  1
  In  In1  1  0.00000000  0.49999987  0.50000020  1
  In  In2  1  0.50000043  0.32207053  0.85680676  1
  In  In3  1  0.50000043  0.67792920  0.14319365  1
  In  In4  1  0.50000043  0.17792933  0.35680655  1
  In  In5  1  0.50000043  0.82207040  0.64319385  1
  Pd  Pd6  1  0.00000000  0.00000000  0.50000020  1
  Pd  Pd7  1  0.00000000  0.49999987  0.00000000  1
  Pd  Pd8  1  0.00000000  0.06640447  0.75593697  1
  Pd  Pd9  1  0.00000000  0.93359527  0.24406344  1
  Pd  Pd10  1  0.00000000  0.43359540  0.25593676  1
  Pd  Pd11  1  0.00000000  0.56640433  0.74406364  1
  Pd  Pd12  1  0.50000043  0.30005076  0.60933866  1
  Pd  Pd13  1  0.50000043  0.69994898  0.39066175  1
  Pd  Pd14  1  0.50000043  0.19994911  0.10933845  1
  Pd  Pd15  1  0.50000043  0.80005063  0.89066195  1
