# generated using pymatgen
data_ZrBeNb2
_symmetry_space_group_name_H-M   'P 1'
_cell_length_a   3.94143856
_cell_length_b   3.94143856
_cell_length_c   4.46238692
_cell_angle_alpha   90.00000000
_cell_angle_beta   90.00000000
_cell_angle_gamma   90.00000000
_symmetry_Int_Tables_number   1
_chemical_formula_structural   ZrBeNb2
_chemical_formula_sum   'Zr1 Be1 Nb2'
_cell_volume   69.32290381
_cell_formula_units_Z   1
loop_
 _symmetry_equiv_pos_site_id
 _symmetry_equiv_pos_as_xyz
  1  'x, y, z'
loop_
 _atom_site_type_symbol
 _atom_site_label
 _atom_site_symmetry_multiplicity
 _atom_site_fract_x
 _atom_site_fract_y
 _atom_site_fract_z
 _atom_site_occupancy
  Zr  Zr0  1  0.50000018  0.50000018  0.50000035  1
  Be  Be1  1  0.00000000  0.00000000  0.50000035  1
  Nb  Nb2  1  0.00000000  0.50000018  0.00000000  1
  Nb  Nb3  1  0.50000018  0.00000000  0.00000000  1
