# generated using pymatgen
data_Be2NiBi
_symmetry_space_group_name_H-M   'P 1'
_cell_length_a   3.08420696
_cell_length_b   3.08420696
_cell_length_c   6.38684496
_cell_angle_alpha   90.00000000
_cell_angle_beta   90.00000000
_cell_angle_gamma   90.00000000
_symmetry_Int_Tables_number   1
_chemical_formula_structural   Be2NiBi
_chemical_formula_sum   'Be2 Ni1 Bi1'
_cell_volume   60.75379350
_cell_formula_units_Z   1
loop_
 _symmetry_equiv_pos_site_id
 _symmetry_equiv_pos_as_xyz
  1  'x, y, z'
loop_
 _atom_site_type_symbol
 _atom_site_label
 _atom_site_symmetry_multiplicity
 _atom_site_fract_x
 _atom_site_fract_y
 _atom_site_fract_z
 _atom_site_occupancy
  Be  Be0  1  0.00000000  0.00000000  0.98291283  1
  Be  Be1  1  0.50000049  0.50000049  0.16396625  1
  Ni  Ni2  1  0.50000049  0.50000049  0.84526220  1
  Bi  Bi3  1  0.00000000  0.00000000  0.50785677  1
