# generated using pymatgen
data_NaSbS2
_symmetry_space_group_name_H-M   'P 1'
_cell_length_a   5.79223233
_cell_length_b   5.79215285
_cell_length_c   6.90238879
_cell_angle_alpha   113.32485527
_cell_angle_beta   113.32259404
_cell_angle_gamma   90.48171129
_symmetry_Int_Tables_number   1
_chemical_formula_structural   NaSbS2
_chemical_formula_sum   'Na2 Sb2 S4'
_cell_volume   191.48876711
_cell_formula_units_Z   2
loop_
 _symmetry_equiv_pos_site_id
 _symmetry_equiv_pos_as_xyz
  1  'x, y, z'
loop_
 _atom_site_type_symbol
 _atom_site_label
 _atom_site_symmetry_multiplicity
 _atom_site_fract_x
 _atom_site_fract_y
 _atom_site_fract_z
 _atom_site_occupancy
  Na  Na0  1  0.36764748  0.63234371  0.74999508  1
  Na  Na1  1  0.63235116  0.36765591  0.25000479  1
  Sb  Sb2  1  0.10330703  0.89669097  0.24999584  1
  Sb  Sb3  1  0.89669161  0.10330865  0.75000403  1
  S  S4  1  0.13083619  0.32339589  0.24051117  1
  S  S5  1  0.86916245  0.67660372  0.75948870  1
  S  S6  1  0.32338031  0.13081502  0.74050121  1
  S  S7  1  0.67661833  0.86918459  0.25949866  1
