# generated using pymatgen
data_Nd2CdGe2
_symmetry_space_group_name_H-M   'P 1'
_cell_length_a   7.52283251
_cell_length_b   7.52283251
_cell_length_c   4.32558931
_cell_angle_alpha   90.00000000
_cell_angle_beta   90.00000000
_cell_angle_gamma   90.00000000
_symmetry_Int_Tables_number   1
_chemical_formula_structural   Nd2CdGe2
_chemical_formula_sum   'Nd4 Cd2 Ge4'
_cell_volume   244.79811445
_cell_formula_units_Z   2
loop_
 _symmetry_equiv_pos_site_id
 _symmetry_equiv_pos_as_xyz
  1  'x, y, z'
loop_
 _atom_site_type_symbol
 _atom_site_label
 _atom_site_symmetry_multiplicity
 _atom_site_fract_x
 _atom_site_fract_y
 _atom_site_fract_z
 _atom_site_occupancy
  Nd  Nd0  1  0.17979189  0.67979172  0.50000008  1
  Nd  Nd1  1  0.82020778  0.32020794  0.50000008  1
  Nd  Nd2  1  0.32020794  0.17979189  0.50000008  1
  Nd  Nd3  1  0.67979172  0.82020778  0.50000008  1
  Cd  Cd4  1  0.00000000  0.00000000  0.00000000  1
  Cd  Cd5  1  0.49999983  0.49999983  0.00000000  1
  Ge  Ge6  1  0.61958270  0.11958287  0.00000000  1
  Ge  Ge7  1  0.38041697  0.88041680  0.00000000  1
  Ge  Ge8  1  0.88041680  0.61958270  0.00000000  1
  Ge  Ge9  1  0.11958287  0.38041697  0.00000000  1
