# generated using pymatgen
data_LiYBe
_symmetry_space_group_name_H-M   'P 1'
_cell_length_a   4.54057794
_cell_length_b   4.54057794
_cell_length_c   3.11782275
_cell_angle_alpha   90.00000000
_cell_angle_beta   90.00000000
_cell_angle_gamma   119.99997207
_symmetry_Int_Tables_number   1
_chemical_formula_structural   LiYBe
_chemical_formula_sum   'Li1 Y1 Be1'
_cell_volume   55.66784954
_cell_formula_units_Z   1
loop_
 _symmetry_equiv_pos_site_id
 _symmetry_equiv_pos_as_xyz
  1  'x, y, z'
loop_
 _atom_site_type_symbol
 _atom_site_label
 _atom_site_symmetry_multiplicity
 _atom_site_fract_x
 _atom_site_fract_y
 _atom_site_fract_z
 _atom_site_occupancy
  Li  Li0  1  0.33333282  0.66666722  0.16692857  1
  Y  Y1  1  0.66666722  0.33333282  0.66662296  1
  Be  Be2  1  0.00000000  -0.00000000  0.16644759  1
