# generated using pymatgen
data_La3S4
_symmetry_space_group_name_H-M   'P 1'
_cell_length_a   7.57217345
_cell_length_b   7.57217345
_cell_length_c   7.57217345
_cell_angle_alpha   109.47122063
_cell_angle_beta   109.47122063
_cell_angle_gamma   109.47122063
_symmetry_Int_Tables_number   1
_chemical_formula_structural   La3S4
_chemical_formula_sum   'La6 S8'
_cell_volume   334.22564444
_cell_formula_units_Z   2
loop_
 _symmetry_equiv_pos_site_id
 _symmetry_equiv_pos_as_xyz
  1  'x, y, z'
loop_
 _atom_site_type_symbol
 _atom_site_label
 _atom_site_symmetry_multiplicity
 _atom_site_fract_x
 _atom_site_fract_y
 _atom_site_fract_z
 _atom_site_occupancy
  La  La0  1  0.75000062  0.37500031  0.12500010  1
  La  La1  1  0.25000021  0.12500010  0.37500031  1
  La  La2  1  0.37500031  0.62500052  0.25000021  1
  La  La3  1  0.12500010  0.87500072  0.75000062  1
  La  La4  1  0.87500072  0.25000021  0.62500052  1
  La  La5  1  0.62500052  0.75000062  0.87500072  1
  S  S6  1  0.00000000  0.15030404  0.00000000  1
  S  S7  1  0.34969638  0.34969638  0.84969679  1
  S  S8  1  0.15030404  0.50000041  0.50000041  1
  S  S9  1  0.50000041  -0.00000000  0.65030445  1
  S  S10  1  0.00000000  0.65030445  0.00000000  1
  S  S11  1  0.84969679  0.84969679  0.34969638  1
  S  S12  1  0.50000041  -0.00000000  0.15030404  1
  S  S13  1  0.65030445  0.50000041  0.50000041  1
