# generated using pymatgen
data_BeZnGa
_symmetry_space_group_name_H-M   'P 1'
_cell_length_a   2.85750468
_cell_length_b   2.85750468
_cell_length_c   5.90355467
_cell_angle_alpha   90.00000000
_cell_angle_beta   90.00000000
_cell_angle_gamma   119.99998667
_symmetry_Int_Tables_number   1
_chemical_formula_structural   BeZnGa
_chemical_formula_sum   'Be1 Zn1 Ga1'
_cell_volume   41.74631836
_cell_formula_units_Z   1
loop_
 _symmetry_equiv_pos_site_id
 _symmetry_equiv_pos_as_xyz
  1  'x, y, z'
loop_
 _atom_site_type_symbol
 _atom_site_label
 _atom_site_symmetry_multiplicity
 _atom_site_fract_x
 _atom_site_fract_y
 _atom_site_fract_z
 _atom_site_occupancy
  Be  Be0  1  0.00000000  0.00000000  0.99509586  1
  Zn  Zn1  1  0.33333218  0.66666598  0.69110049  1
  Ga  Ga2  1  0.66666598  0.33333218  0.31380207  1
