# generated using pymatgen
data_KBeGa4
_symmetry_space_group_name_H-M   'P 1'
_cell_length_a   5.64191978
_cell_length_b   5.64191978
_cell_length_c   5.64191978
_cell_angle_alpha   60.00000000
_cell_angle_beta   60.00000000
_cell_angle_gamma   60.00000000
_symmetry_Int_Tables_number   1
_chemical_formula_structural   KBeGa4
_chemical_formula_sum   'K1 Be1 Ga4'
_cell_volume   126.98888856
_cell_formula_units_Z   1
loop_
 _symmetry_equiv_pos_site_id
 _symmetry_equiv_pos_as_xyz
  1  'x, y, z'
loop_
 _atom_site_type_symbol
 _atom_site_label
 _atom_site_symmetry_multiplicity
 _atom_site_fract_x
 _atom_site_fract_y
 _atom_site_fract_z
 _atom_site_occupancy
  K  K0  1  0.25000002  0.25000002  0.25000002  1
  Be  Be1  1  0.00000000  0.00000000  0.00000000  1
  Ga  Ga2  1  0.12265811  0.62578034  0.62578034  1
  Ga  Ga3  1  0.62578034  0.62578034  0.62578034  1
  Ga  Ga4  1  0.62578034  0.12265811  0.62578034  1
  Ga  Ga5  1  0.62578034  0.62578034  0.12265811  1
