# generated using pymatgen
data_BeSb2Pb
_symmetry_space_group_name_H-M   'P 1'
_cell_length_a   3.85182159
_cell_length_b   3.85182159
_cell_length_c   7.33016059
_cell_angle_alpha   90.00000000
_cell_angle_beta   90.00000000
_cell_angle_gamma   90.00000000
_symmetry_Int_Tables_number   1
_chemical_formula_structural   BeSb2Pb
_chemical_formula_sum   'Be1 Sb2 Pb1'
_cell_volume   108.75414454
_cell_formula_units_Z   1
loop_
 _symmetry_equiv_pos_site_id
 _symmetry_equiv_pos_as_xyz
  1  'x, y, z'
loop_
 _atom_site_type_symbol
 _atom_site_label
 _atom_site_symmetry_multiplicity
 _atom_site_fract_x
 _atom_site_fract_y
 _atom_site_fract_z
 _atom_site_occupancy
  Be  Be0  1  0.00000000  0.00000000  0.32867008  1
  Sb  Sb1  1  0.00000000  0.00000000  -0.00467553  1
  Sb  Sb2  1  0.49999979  0.49999979  0.38067290  1
  Pb  Pb3  1  0.49999979  0.49999979  0.79533142  1
