# generated using pymatgen
data_Ho3(GePd)4
_symmetry_space_group_name_H-M   'P 1'
_cell_length_a   8.09574572
_cell_length_b   8.09574572
_cell_length_c   8.09574572
_cell_angle_alpha   150.23319893
_cell_angle_beta   128.13667089
_cell_angle_gamma   60.94868961
_symmetry_Int_Tables_number   1
_chemical_formula_structural   Ho3(GePd)4
_chemical_formula_sum   'Ho3 Ge4 Pd4'
_cell_volume   205.46039198
_cell_formula_units_Z   1
loop_
 _symmetry_equiv_pos_site_id
 _symmetry_equiv_pos_as_xyz
  1  'x, y, z'
loop_
 _atom_site_type_symbol
 _atom_site_label
 _atom_site_symmetry_multiplicity
 _atom_site_fract_x
 _atom_site_fract_y
 _atom_site_fract_z
 _atom_site_occupancy
  Ho  Ho0  1  0.37392737  0.87392857  0.50000120  1
  Ho  Ho1  1  0.62607259  0.12607265  0.49999994  1
  Ho  Ho2  1  0.00000000  0.00000000  0.00000000  1
  Ge  Ge3  1  0.21665240  0.21665240  -0.00000000  1
  Ge  Ge4  1  0.78334764  0.78334764  0.00000000  1
  Ge  Ge5  1  0.68931774  0.50000002  0.18931772  1
  Ge  Ge6  1  0.31068222  0.50000120  0.81068342  1
  Pd  Pd7  1  0.62273896  0.32473786  0.29800110  1
  Pd  Pd8  1  0.02673668  0.32473904  0.70200004  1
  Pd  Pd9  1  0.97326328  0.67526218  0.29800110  1
  Pd  Pd10  1  0.37726100  0.67526335  0.70200004  1
