# generated using pymatgen
data_Be2ZnRe
_symmetry_space_group_name_H-M   'P 1'
_cell_length_a   4.71995650
_cell_length_b   4.71995650
_cell_length_c   4.71995650
_cell_angle_alpha   138.63538441
_cell_angle_beta   138.63538441
_cell_angle_gamma   59.93125820
_symmetry_Int_Tables_number   1
_chemical_formula_structural   Be2ZnRe
_chemical_formula_sum   'Be2 Zn1 Re1'
_cell_volume   45.45292325
_cell_formula_units_Z   1
loop_
 _symmetry_equiv_pos_site_id
 _symmetry_equiv_pos_as_xyz
  1  'x, y, z'
loop_
 _atom_site_type_symbol
 _atom_site_label
 _atom_site_symmetry_multiplicity
 _atom_site_fract_x
 _atom_site_fract_y
 _atom_site_fract_z
 _atom_site_occupancy
  Be  Be0  1  0.00000000  0.00000000  0.00000000  1
  Be  Be1  1  0.25000017  0.74999944  0.49999927  1
  Zn  Zn2  1  0.74999944  0.25000017  0.49999927  1
  Re  Re3  1  0.50000034  0.50000034  0.00000000  1
