# generated using pymatgen
data_ErSnIr
_symmetry_space_group_name_H-M   'P 1'
_cell_length_a   7.51540903
_cell_length_b   7.51540903
_cell_length_c   3.85068464
_cell_angle_alpha   90.00000000
_cell_angle_beta   90.00000000
_cell_angle_gamma   120.00003891
_symmetry_Int_Tables_number   1
_chemical_formula_structural   ErSnIr
_chemical_formula_sum   'Er3 Sn3 Ir3'
_cell_volume   188.35348418
_cell_formula_units_Z   3
loop_
 _symmetry_equiv_pos_site_id
 _symmetry_equiv_pos_as_xyz
  1  'x, y, z'
loop_
 _atom_site_type_symbol
 _atom_site_label
 _atom_site_symmetry_multiplicity
 _atom_site_fract_x
 _atom_site_fract_y
 _atom_site_fract_z
 _atom_site_occupancy
  Er  Er0  1  0.59658968  0.00000016  0.49999940  1
  Er  Er1  1  0.00000016  0.59658968  0.49999940  1
  Er  Er2  1  0.40341021  0.40341021  0.49999940  1
  Sn  Sn3  1  0.26352667  0.00000022  0.00000000  1
  Sn  Sn4  1  0.00000022  0.26352667  0.00000000  1
  Sn  Sn5  1  0.73647217  0.73647217  0.00000000  1
  Ir  Ir6  1  0.33333271  0.66666700  0.00000000  1
  Ir  Ir7  1  0.66666700  0.33333271  0.00000000  1
  Ir  Ir8  1  0.99999873  0.99999873  0.49999940  1
