# generated using pymatgen
data_Cd5Au3
_symmetry_space_group_name_H-M   'P 1'
_cell_length_a   8.17703429
_cell_length_b   8.17703429
_cell_length_c   8.17703429
_cell_angle_alpha   96.47004678
_cell_angle_beta   96.47004678
_cell_angle_gamma   140.77172082
_symmetry_Int_Tables_number   1
_chemical_formula_structural   Cd5Au3
_chemical_formula_sum   'Cd10 Au6'
_cell_volume   325.70660901
_cell_formula_units_Z   2
loop_
 _symmetry_equiv_pos_site_id
 _symmetry_equiv_pos_as_xyz
  1  'x, y, z'
loop_
 _atom_site_type_symbol
 _atom_site_label
 _atom_site_symmetry_multiplicity
 _atom_site_fract_x
 _atom_site_fract_y
 _atom_site_fract_z
 _atom_site_occupancy
  Cd  Cd0  1  0.74999985  0.25000001  0.49999985  1
  Cd  Cd1  1  0.25000001  0.74999985  0.49999985  1
  Cd  Cd2  1  0.22506460  0.07961614  0.30468074  1
  Cd  Cd3  1  0.77493526  0.92038372  0.69531896  1
  Cd  Cd4  1  0.07961614  0.77493510  0.85455124  1
  Cd  Cd5  1  0.92038372  0.22506477  0.14544846  1
  Cd  Cd6  1  0.72506461  0.42038387  0.14544846  1
  Cd  Cd7  1  0.27493525  0.57961599  0.85455124  1
  Cd  Cd8  1  0.57961615  0.72506461  0.30468074  1
  Cd  Cd9  1  0.42038371  0.27493525  0.69531896  1
  Au  Au10  1  0.25000001  0.25000001  0.00000000  1
  Au  Au11  1  0.75000002  0.75000002  0.00000000  1
  Au  Au12  1  0.66494117  0.16494132  0.82988248  1
  Au  Au13  1  0.33505870  0.83505854  0.17011721  1
  Au  Au14  1  0.16494132  0.33505853  0.49999985  1
  Au  Au15  1  0.83505854  0.66494133  0.49999985  1
