# generated using pymatgen
data_BeV2Se
_symmetry_space_group_name_H-M   'P 1'
_cell_length_a   4.74572570
_cell_length_b   4.74572570
_cell_length_c   4.74572570
_cell_angle_alpha   135.75577144
_cell_angle_beta   135.75577144
_cell_angle_gamma   64.35814319
_symmetry_Int_Tables_number   1
_chemical_formula_structural   BeV2Se
_chemical_formula_sum   'Be1 V2 Se1'
_cell_volume   51.31638051
_cell_formula_units_Z   1
loop_
 _symmetry_equiv_pos_site_id
 _symmetry_equiv_pos_as_xyz
  1  'x, y, z'
loop_
 _atom_site_type_symbol
 _atom_site_label
 _atom_site_symmetry_multiplicity
 _atom_site_fract_x
 _atom_site_fract_y
 _atom_site_fract_z
 _atom_site_occupancy
  Be  Be0  1  0.49999949  0.49999949  0.00000000  1
  V  V1  1  0.00000000  0.00000000  0.00000000  1
  V  V2  1  0.24999974  0.74999859  0.49999884  1
  Se  Se3  1  0.74999859  0.24999974  0.49999884  1
