# generated using pymatgen
data_BePRh
_symmetry_space_group_name_H-M   'P 1'
_cell_length_a   4.18762416
_cell_length_b   4.18762416
_cell_length_c   4.18762416
_cell_angle_alpha   135.34408184
_cell_angle_beta   135.34408184
_cell_angle_gamma   64.99604171
_symmetry_Int_Tables_number   1
_chemical_formula_structural   BePRh
_chemical_formula_sum   'Be1 P1 Rh1'
_cell_volume   35.75672922
_cell_formula_units_Z   1
loop_
 _symmetry_equiv_pos_site_id
 _symmetry_equiv_pos_as_xyz
  1  'x, y, z'
loop_
 _atom_site_type_symbol
 _atom_site_label
 _atom_site_symmetry_multiplicity
 _atom_site_fract_x
 _atom_site_fract_y
 _atom_site_fract_z
 _atom_site_occupancy
  Be  Be0  1  0.00512926  0.00512926  0.00000000  1
  P  P1  1  0.32506982  0.32506982  0.00000000  1
  Rh  Rh2  1  0.66979875  0.66979875  0.00000000  1
