# generated using pymatgen
data_K3Ni2F7
_symmetry_space_group_name_H-M   'P 1'
_cell_length_a   10.90181149
_cell_length_b   10.90181149
_cell_length_c   10.90181149
_cell_angle_alpha   158.71633130
_cell_angle_beta   158.71633130
_cell_angle_gamma   30.27797199
_symmetry_Int_Tables_number   1
_chemical_formula_structural   K3Ni2F7
_chemical_formula_sum   'K3 Ni2 F7'
_cell_volume   170.60983530
_cell_formula_units_Z   1
loop_
 _symmetry_equiv_pos_site_id
 _symmetry_equiv_pos_as_xyz
  1  'x, y, z'
loop_
 _atom_site_type_symbol
 _atom_site_label
 _atom_site_symmetry_multiplicity
 _atom_site_fract_x
 _atom_site_fract_y
 _atom_site_fract_z
 _atom_site_occupancy
  K  K0  1  0.68429041  0.68429041  0.00000000  1
  K  K1  1  0.31570999  0.31570999  0.00000000  1
  K  K2  1  0.50000020  0.50000020  0.00000000  1
  Ni  Ni3  1  0.90321499  0.90321499  0.00000000  1
  Ni  Ni4  1  0.09678541  0.09678541  0.00000000  1
  F  F5  1  0.80797744  0.80797744  0.00000000  1
  F  F6  1  0.19202296  0.19202296  0.00000000  1
  F  F7  1  0.40502190  0.90502277  0.50000087  1
  F  F8  1  0.90502277  0.40502190  0.50000087  1
  F  F9  1  0.59497917  0.09497830  0.50000087  1
  F  F10  1  0.09497830  0.59497917  0.50000087  1
  F  F11  1  0.00000000  0.00000000  0.00000000  1
