# generated using pymatgen
data_ZrBe2V
_symmetry_space_group_name_H-M   'P 1'
_cell_length_a   4.82958975
_cell_length_b   4.82958975
_cell_length_c   4.82958975
_cell_angle_alpha   135.53293770
_cell_angle_beta   135.53293770
_cell_angle_gamma   64.70325333
_symmetry_Int_Tables_number   1
_chemical_formula_structural   ZrBe2V
_chemical_formula_sum   'Zr1 Be2 V1'
_cell_volume   54.50001039
_cell_formula_units_Z   1
loop_
 _symmetry_equiv_pos_site_id
 _symmetry_equiv_pos_as_xyz
  1  'x, y, z'
loop_
 _atom_site_type_symbol
 _atom_site_label
 _atom_site_symmetry_multiplicity
 _atom_site_fract_x
 _atom_site_fract_y
 _atom_site_fract_z
 _atom_site_occupancy
  Zr  Zr0  1  0.74999924  0.24999995  0.49999930  1
  Be  Be1  1  0.00000000  0.00000000  0.00000000  1
  Be  Be2  1  0.24999995  0.74999924  0.49999930  1
  V  V3  1  0.49999989  0.49999989  0.00000000  1
