# generated using pymatgen
data_CaBe2Ru
_symmetry_space_group_name_H-M   'P 1'
_cell_length_a   3.08172511
_cell_length_b   3.08172511
_cell_length_c   6.04990956
_cell_angle_alpha   90.00000000
_cell_angle_beta   90.00000000
_cell_angle_gamma   90.00000000
_symmetry_Int_Tables_number   1
_chemical_formula_structural   CaBe2Ru
_chemical_formula_sum   'Ca1 Be2 Ru1'
_cell_volume   57.45617043
_cell_formula_units_Z   1
loop_
 _symmetry_equiv_pos_site_id
 _symmetry_equiv_pos_as_xyz
  1  'x, y, z'
loop_
 _atom_site_type_symbol
 _atom_site_label
 _atom_site_symmetry_multiplicity
 _atom_site_fract_x
 _atom_site_fract_y
 _atom_site_fract_z
 _atom_site_occupancy
  Ca  Ca0  1  0.50000079  0.50000079  0.00000000  1
  Be  Be1  1  0.00000000  0.00000000  0.66864840  1
  Be  Be2  1  0.00000000  0.00000000  0.33135168  1
  Ru  Ru3  1  0.50000079  0.50000079  0.50000004  1
