# generated using pymatgen
data_ScBeNi2
_symmetry_space_group_name_H-M   'P 1'
_cell_length_a   4.68057283
_cell_length_b   4.68057283
_cell_length_c   4.68057283
_cell_angle_alpha   135.48680071
_cell_angle_beta   135.48680071
_cell_angle_gamma   64.77475517
_symmetry_Int_Tables_number   1
_chemical_formula_structural   ScBeNi2
_chemical_formula_sum   'Sc1 Be1 Ni2'
_cell_volume   49.68738409
_cell_formula_units_Z   1
loop_
 _symmetry_equiv_pos_site_id
 _symmetry_equiv_pos_as_xyz
  1  'x, y, z'
loop_
 _atom_site_type_symbol
 _atom_site_label
 _atom_site_symmetry_multiplicity
 _atom_site_fract_x
 _atom_site_fract_y
 _atom_site_fract_z
 _atom_site_occupancy
  Sc  Sc0  1  0.49999990  0.49999990  0.00000000  1
  Be  Be1  1  0.74999955  0.24999995  0.49999960  1
  Ni  Ni2  1  0.00000000  0.00000000  0.00000000  1
  Ni  Ni3  1  0.24999995  0.74999955  0.49999960  1
