# generated using pymatgen
data_NaFeSO4F
_symmetry_space_group_name_H-M   'P 1'
_cell_length_a   5.56590821
_cell_length_b   5.56590821
_cell_length_c   7.36189915
_cell_angle_alpha   75.56075183
_cell_angle_beta   75.56075183
_cell_angle_gamma   104.61612879
_symmetry_Int_Tables_number   1
_chemical_formula_structural   NaFeSO4F
_chemical_formula_sum   'Na2 Fe2 S2 O8 F2'
_cell_volume   201.49921689
_cell_formula_units_Z   2
loop_
 _symmetry_equiv_pos_site_id
 _symmetry_equiv_pos_as_xyz
  1  'x, y, z'
loop_
 _atom_site_type_symbol
 _atom_site_label
 _atom_site_symmetry_multiplicity
 _atom_site_fract_x
 _atom_site_fract_y
 _atom_site_fract_z
 _atom_site_occupancy
  Na  Na0  1  0.33560444  0.66439649  0.25000026  1
  Na  Na1  1  0.66439631  0.33560426  0.75000055  1
  Fe  Fe2  1  0.00000000  0.00000000  0.00000000  1
  Fe  Fe3  1  -0.00000018  -0.00000018  0.50000029  1
  S  S4  1  0.68131181  0.31868912  0.25000026  1
  S  S5  1  0.31868895  0.68131163  0.75000055  1
  O  O6  1  0.67478817  0.11664511  0.14681691  1
  O  O7  1  0.88335582  0.32521276  0.35318361  1
  O  O8  1  0.32521258  0.88335564  0.85318390  1
  O  O9  1  0.11664493  0.67478799  0.64681720  1
  O  O10  1  0.74449586  0.58320533  0.10063108  1
  O  O11  1  0.41679560  0.25550507  0.39936944  1
  O  O12  1  0.25550490  0.41679543  0.89936973  1
  O  O13  1  0.58320515  0.74449568  0.60063137  1
  F  F14  1  0.08296263  0.91703830  0.25000026  1
  F  F15  1  0.91703812  0.08296245  0.75000055  1
