# generated using pymatgen
data_TbSnPd
_symmetry_space_group_name_H-M   'P 1'
_cell_length_a   4.64673722
_cell_length_b   7.22561192
_cell_length_c   7.96198512
_cell_angle_alpha   90.00000000
_cell_angle_beta   90.00000000
_cell_angle_gamma   90.00000000
_symmetry_Int_Tables_number   1
_chemical_formula_structural   TbSnPd
_chemical_formula_sum   'Tb4 Sn4 Pd4'
_cell_volume   267.32778948
_cell_formula_units_Z   4
loop_
 _symmetry_equiv_pos_site_id
 _symmetry_equiv_pos_as_xyz
  1  'x, y, z'
loop_
 _atom_site_type_symbol
 _atom_site_label
 _atom_site_symmetry_multiplicity
 _atom_site_fract_x
 _atom_site_fract_y
 _atom_site_fract_z
 _atom_site_occupancy
  Tb  Tb0  1  0.25000015  0.00914915  0.29416515  1
  Tb  Tb1  1  0.75000045  0.49085071  0.79416546  1
  Tb  Tb2  1  0.75000045  0.99085058  0.70583546  1
  Tb  Tb3  1  0.25000015  0.50914902  0.20583515  1
  Sn  Sn4  1  0.25000015  0.19477250  0.91211982  1
  Sn  Sn5  1  0.75000045  0.30522737  0.41211951  1
  Sn  Sn6  1  0.75000045  0.80522724  0.08788079  1
  Sn  Sn7  1  0.25000015  0.69477236  0.58788110  1
  Pd  Pd8  1  0.25000015  0.29380410  0.58327266  1
  Pd  Pd9  1  0.75000045  0.20619577  0.08327236  1
  Pd  Pd10  1  0.75000045  0.70619563  0.41672795  1
  Pd  Pd11  1  0.25000015  0.79380397  0.91672826  1
