# generated using pymatgen
data_Li2BeCl
_symmetry_space_group_name_H-M   'P 1'
_cell_length_a   6.68438774
_cell_length_b   6.68438774
_cell_length_c   6.68438774
_cell_angle_alpha   150.29052703
_cell_angle_beta   150.29052703
_cell_angle_gamma   42.51510770
_symmetry_Int_Tables_number   1
_chemical_formula_structural   Li2BeCl
_chemical_formula_sum   'Li2 Be1 Cl1'
_cell_volume   73.17692650
_cell_formula_units_Z   1
loop_
 _symmetry_equiv_pos_site_id
 _symmetry_equiv_pos_as_xyz
  1  'x, y, z'
loop_
 _atom_site_type_symbol
 _atom_site_label
 _atom_site_symmetry_multiplicity
 _atom_site_fract_x
 _atom_site_fract_y
 _atom_site_fract_z
 _atom_site_occupancy
  Li  Li0  1  0.00000000  0.00000000  0.00000000  1
  Li  Li1  1  0.24999990  0.74999941  0.49999951  1
  Be  Be2  1  0.49999980  0.49999980  0.00000000  1
  Cl  Cl3  1  0.74999941  0.24999990  0.49999951  1
