# generated using pymatgen
data_Nd2AlNO3
_symmetry_space_group_name_H-M   'P 1'
_cell_length_a   6.82149942
_cell_length_b   6.82149942
_cell_length_c   6.82149942
_cell_angle_alpha   148.32577933
_cell_angle_beta   148.32577933
_cell_angle_gamma   45.40467915
_symmetry_Int_Tables_number   1
_chemical_formula_structural   Nd2AlNO3
_chemical_formula_sum   'Nd2 Al1 N1 O3'
_cell_volume   87.23572265
_cell_formula_units_Z   1
loop_
 _symmetry_equiv_pos_site_id
 _symmetry_equiv_pos_as_xyz
  1  'x, y, z'
loop_
 _atom_site_type_symbol
 _atom_site_label
 _atom_site_symmetry_multiplicity
 _atom_site_fract_x
 _atom_site_fract_y
 _atom_site_fract_z
 _atom_site_occupancy
  Nd  Nd0  1  0.63844505  0.63844505  0.00000000  1
  Nd  Nd1  1  0.34965066  0.34965066  0.00000000  1
  Al  Al2  1  0.98721282  0.98721282  0.00000000  1
  N  N3  1  0.82701004  0.82701004  0.00000000  1
  O  O4  1  0.00014088  0.50014074  0.49999987  1
  O  O5  1  0.50014074  0.00014088  0.49999987  1
  O  O6  1  0.16010177  0.16010177  0.00000000  1
