# generated using pymatgen
data_ErCrO4
_symmetry_space_group_name_H-M   'P 1'
_cell_length_a   5.89557904
_cell_length_b   5.89557904
_cell_length_c   5.89557904
_cell_angle_alpha   106.23313789
_cell_angle_beta   106.23313789
_cell_angle_gamma   116.16177076
_symmetry_Int_Tables_number   1
_chemical_formula_structural   ErCrO4
_chemical_formula_sum   'Er2 Cr2 O8'
_cell_volume   156.11418755
_cell_formula_units_Z   2
loop_
 _symmetry_equiv_pos_site_id
 _symmetry_equiv_pos_as_xyz
  1  'x, y, z'
loop_
 _atom_site_type_symbol
 _atom_site_label
 _atom_site_symmetry_multiplicity
 _atom_site_fract_x
 _atom_site_fract_y
 _atom_site_fract_z
 _atom_site_occupancy
  Er  Er0  1  0.00000000  0.00000000  0.00000000  1
  Er  Er1  1  0.74999984  0.25000003  0.49999981  1
  Cr  Cr2  1  0.50000007  0.50000007  0.00000000  1
  Cr  Cr3  1  0.25000003  0.74999984  0.49999981  1
  O  O4  1  0.50894274  0.32406838  0.18487436  1
  O  O5  1  0.13919376  0.32406812  0.81512526  1
  O  O6  1  0.07406835  0.38919380  0.31512545  1
  O  O7  1  0.07406835  0.75894251  0.68487416  1
  O  O8  1  0.61080608  0.92593153  0.68487416  1
  O  O9  1  0.24105736  0.92593153  0.31512545  1
  O  O10  1  0.67593175  0.86080611  0.18487436  1
  O  O11  1  0.67593149  0.49105713  0.81512526  1
