# generated using pymatgen
data_Ce(AsIr)2
_symmetry_space_group_name_H-M   'P 1'
_cell_length_a   4.30133440
_cell_length_b   4.30133440
_cell_length_c   10.11151010
_cell_angle_alpha   90.00000000
_cell_angle_beta   90.00000000
_cell_angle_gamma   90.00000000
_symmetry_Int_Tables_number   1
_chemical_formula_structural   Ce(AsIr)2
_chemical_formula_sum   'Ce2 As4 Ir4'
_cell_volume   187.07787769
_cell_formula_units_Z   2
loop_
 _symmetry_equiv_pos_site_id
 _symmetry_equiv_pos_as_xyz
  1  'x, y, z'
loop_
 _atom_site_type_symbol
 _atom_site_label
 _atom_site_symmetry_multiplicity
 _atom_site_fract_x
 _atom_site_fract_y
 _atom_site_fract_z
 _atom_site_occupancy
  Ce  Ce0  1  0.24999974  0.24999974  0.75106476  1
  Ce  Ce1  1  0.74999923  0.74999923  0.24893523  1
  As  As2  1  0.74999923  0.24999974  0.00000000  1
  As  As3  1  0.24999974  0.74999923  0.00000000  1
  As  As4  1  0.24999974  0.24999974  0.36136915  1
  As  As5  1  0.74999923  0.74999923  0.63863084  1
  Ir  Ir6  1  0.74999923  0.24999974  0.49999999  1
  Ir  Ir7  1  0.24999974  0.74999923  0.49999999  1
  Ir  Ir8  1  0.24999974  0.24999974  0.12188684  1
  Ir  Ir9  1  0.74999923  0.74999923  0.87811315  1
