# generated using pymatgen
data_HoCoGe
_symmetry_space_group_name_H-M   'P 1'
_cell_length_a   4.22082001
_cell_length_b   6.84563096
_cell_length_c   7.11243106
_cell_angle_alpha   90.00000000
_cell_angle_beta   90.00000000
_cell_angle_gamma   90.00000000
_symmetry_Int_Tables_number   1
_chemical_formula_structural   HoCoGe
_chemical_formula_sum   'Ho4 Co4 Ge4'
_cell_volume   205.50783600
_cell_formula_units_Z   4
loop_
 _symmetry_equiv_pos_site_id
 _symmetry_equiv_pos_as_xyz
  1  'x, y, z'
loop_
 _atom_site_type_symbol
 _atom_site_label
 _atom_site_symmetry_multiplicity
 _atom_site_fract_x
 _atom_site_fract_y
 _atom_site_fract_z
 _atom_site_occupancy
  Ho  Ho0  1  0.25000000  0.98830063  0.80285898  1
  Ho  Ho1  1  0.75000000  0.51169916  0.30285906  1
  Ho  Ho2  1  0.75000000  0.01169923  0.19714087  1
  Ho  Ho3  1  0.25000000  0.48830070  0.69714079  1
  Co  Co4  1  0.25000000  0.15703089  0.43123523  1
  Co  Co5  1  0.75000000  0.34296904  0.93123516  1
  Co  Co6  1  0.75000000  0.84296896  0.56876462  1
  Co  Co7  1  0.25000000  0.65703082  0.06876470  1
  Ge  Ge8  1  0.25000000  0.79764565  0.39912291  1
  Ge  Ge9  1  0.75000000  0.70235414  0.89912283  1
  Ge  Ge10  1  0.75000000  0.20235421  0.60087694  1
  Ge  Ge11  1  0.25000000  0.29764572  0.10087702  1
