# generated using pymatgen
data_TbFe2
_symmetry_space_group_name_H-M   'P 1'
_cell_length_a   4.97155005
_cell_length_b   4.97155005
_cell_length_c   8.39954252
_cell_angle_alpha   90.00000000
_cell_angle_beta   90.00000000
_cell_angle_gamma   120.00122319
_symmetry_Int_Tables_number   1
_chemical_formula_structural   TbFe2
_chemical_formula_sum   'Tb4 Fe8'
_cell_volume   179.78959050
_cell_formula_units_Z   4
loop_
 _symmetry_equiv_pos_site_id
 _symmetry_equiv_pos_as_xyz
  1  'x, y, z'
loop_
 _atom_site_type_symbol
 _atom_site_label
 _atom_site_symmetry_multiplicity
 _atom_site_fract_x
 _atom_site_fract_y
 _atom_site_fract_z
 _atom_site_occupancy
  Tb  Tb0  1  0.33332935  0.66667102  0.06514144  1
  Tb  Tb1  1  0.66667102  0.33332935  0.56514129  1
  Tb  Tb2  1  0.66667102  0.33332935  0.93485826  1
  Tb  Tb3  1  0.33332935  0.66667102  0.43485841  1
  Fe  Fe4  1  0.00000000  0.00000000  0.00000000  1
  Fe  Fe5  1  0.00000000  0.00000000  0.49999985  1
  Fe  Fe6  1  0.83280888  0.66565397  0.24999993  1
  Fe  Fe7  1  0.33434640  0.16719150  0.24999993  1
  Fe  Fe8  1  0.83282773  0.16717265  0.24999993  1
  Fe  Fe9  1  0.16719150  0.33434640  0.74999978  1
  Fe  Fe10  1  0.66565397  0.83280888  0.74999978  1
  Fe  Fe11  1  0.16717265  0.83282773  0.74999978  1
