# generated using pymatgen
data_NaBeSi2
_symmetry_space_group_name_H-M   'P 1'
_cell_length_a   4.92195621
_cell_length_b   4.92195621
_cell_length_c   4.92195621
_cell_angle_alpha   133.14964116
_cell_angle_beta   133.14964116
_cell_angle_gamma   68.41924307
_symmetry_Int_Tables_number   1
_chemical_formula_structural   NaBeSi2
_chemical_formula_sum   'Na1 Be1 Si2'
_cell_volume   62.33867302
_cell_formula_units_Z   1
loop_
 _symmetry_equiv_pos_site_id
 _symmetry_equiv_pos_as_xyz
  1  'x, y, z'
loop_
 _atom_site_type_symbol
 _atom_site_label
 _atom_site_symmetry_multiplicity
 _atom_site_fract_x
 _atom_site_fract_y
 _atom_site_fract_z
 _atom_site_occupancy
  Na  Na0  1  0.75000015  0.25000002  0.50000014  1
  Be  Be1  1  0.50000003  0.50000003  0.00000000  1
  Si  Si2  1  0.00000000  0.00000000  0.00000000  1
  Si  Si3  1  0.25000002  0.75000015  0.50000014  1
