# generated using pymatgen
data_BaTlSb2
_symmetry_space_group_name_H-M   'P 1'
_cell_length_a   4.26849122
_cell_length_b   4.26843572
_cell_length_c   7.25099446
_cell_angle_alpha   90.00000000
_cell_angle_beta   90.00000000
_cell_angle_gamma   90.00000000
_symmetry_Int_Tables_number   1
_chemical_formula_structural   BaTlSb2
_chemical_formula_sum   'Ba1 Tl1 Sb2'
_cell_volume   132.11152677
_cell_formula_units_Z   1
loop_
 _symmetry_equiv_pos_site_id
 _symmetry_equiv_pos_as_xyz
  1  'x, y, z'
loop_
 _atom_site_type_symbol
 _atom_site_label
 _atom_site_symmetry_multiplicity
 _atom_site_fract_x
 _atom_site_fract_y
 _atom_site_fract_z
 _atom_site_occupancy
  Ba  Ba0  1  0.49999986  0.50000050  0.75600493  1
  Tl  Tl1  1  0.00000000  0.00000000  0.46281211  1
  Sb  Sb2  1  0.00000000  0.00000000  0.04595746  1
  Sb  Sb3  1  0.49999986  0.50000050  0.23522457  1
