# generated using pymatgen
data_AlF3
_symmetry_space_group_name_H-M   'P 1'
_cell_length_a   5.12257407
_cell_length_b   5.12257339
_cell_length_c   6.27338691
_cell_angle_alpha   90.00017380
_cell_angle_beta   89.99982512
_cell_angle_gamma   120.00042679
_symmetry_Int_Tables_number   1
_chemical_formula_structural   AlF3
_chemical_formula_sum   'Al3 F9'
_cell_volume   142.56314678
_cell_formula_units_Z   3
loop_
 _symmetry_equiv_pos_site_id
 _symmetry_equiv_pos_as_xyz
  1  'x, y, z'
loop_
 _atom_site_type_symbol
 _atom_site_label
 _atom_site_symmetry_multiplicity
 _atom_site_fract_x
 _atom_site_fract_y
 _atom_site_fract_z
 _atom_site_occupancy
  Al  Al0  1  -0.00000128  -0.00000032  1.00000048  1
  Al  Al1  1  0.33333284  0.66666855  0.66666779  1
  Al  Al2  1  0.66666800  0.33333334  0.33333428  1
  F  F3  1  0.50001781  0.50001832  0.50000111  1
  F  F4  1  0.49998106  0.00000040  0.49999896  1
  F  F5  1  -0.00000009  0.49998159  0.50000227  1
  F  F6  1  0.83334372  0.66666080  0.16666445  1
  F  F7  1  0.33333737  0.16666677  0.16666394  1
  F  F8  1  0.83333214  0.16665831  0.16667325  1
  F  F9  1  0.66666027  0.83334429  0.83333835  1
  F  F10  1  0.16666624  0.33333784  0.83333745  1
  F  F11  1  0.16665780  0.83333271  0.83332880  1
