# generated using pymatgen
data_Sr2Be2Bi
_symmetry_space_group_name_H-M   'P 1'
_cell_length_a   10.31158392
_cell_length_b   10.31158392
_cell_length_c   10.31158392
_cell_angle_alpha   159.51512712
_cell_angle_beta   159.51512712
_cell_angle_gamma   29.12861385
_symmetry_Int_Tables_number   1
_chemical_formula_structural   Sr2Be2Bi
_chemical_formula_sum   'Sr2 Be2 Bi1'
_cell_volume   134.20896447
_cell_formula_units_Z   1
loop_
 _symmetry_equiv_pos_site_id
 _symmetry_equiv_pos_as_xyz
  1  'x, y, z'
loop_
 _atom_site_type_symbol
 _atom_site_label
 _atom_site_symmetry_multiplicity
 _atom_site_fract_x
 _atom_site_fract_y
 _atom_site_fract_z
 _atom_site_occupancy
  Sr  Sr0  1  0.61625993  0.61625993  0.00000000  1
  Sr  Sr1  1  0.38373990  0.38373990  0.00000000  1
  Be  Be2  1  0.74999988  0.24999996  0.49999992  1
  Be  Be3  1  0.24999996  0.74999988  0.49999992  1
  Bi  Bi4  1  0.00000000  0.00000000  0.00000000  1
