# generated using pymatgen
data_Dy3Ge4
_symmetry_space_group_name_H-M   'P 1'
_cell_length_a   5.70309107
_cell_length_b   5.70309107
_cell_length_c   14.27934647
_cell_angle_alpha   90.00000000
_cell_angle_beta   90.00000000
_cell_angle_gamma   138.23823048
_symmetry_Int_Tables_number   1
_chemical_formula_structural   Dy3Ge4
_chemical_formula_sum   'Dy6 Ge8'
_cell_volume   309.33277228
_cell_formula_units_Z   2
loop_
 _symmetry_equiv_pos_site_id
 _symmetry_equiv_pos_as_xyz
  1  'x, y, z'
loop_
 _atom_site_type_symbol
 _atom_site_label
 _atom_site_symmetry_multiplicity
 _atom_site_fract_x
 _atom_site_fract_y
 _atom_site_fract_z
 _atom_site_occupancy
  Dy  Dy0  1  0.33112684  0.66887233  0.90338543  1
  Dy  Dy1  1  0.66887233  0.33112684  0.40338531  1
  Dy  Dy2  1  0.33112684  0.66887233  0.59661494  1
  Dy  Dy3  1  0.66887233  0.33112684  0.09661482  1
  Dy  Dy4  1  0.04755394  0.95244523  0.75000019  1
  Dy  Dy5  1  0.95244523  0.04755394  0.25000006  1
  Ge  Ge6  1  0.37911737  0.62088181  0.10907349  1
  Ge  Ge7  1  0.62088181  0.37911737  0.60907361  1
  Ge  Ge8  1  0.37911737  0.62088181  0.39092663  1
  Ge  Ge9  1  0.62088181  0.37911737  0.89092676  1
  Ge  Ge10  1  0.77703949  0.22295968  0.75000019  1
  Ge  Ge11  1  0.22295968  0.77703949  0.25000006  1
  Ge  Ge12  1  0.00000000  0.00000000  0.00000000  1
  Ge  Ge13  1  0.00000000  0.00000000  0.50000012  1
