# generated using pymatgen
data_HfBeNb2
_symmetry_space_group_name_H-M   'P 1'
_cell_length_a   2.82358496
_cell_length_b   2.82358496
_cell_length_c   8.47190761
_cell_angle_alpha   90.00000000
_cell_angle_beta   90.00000000
_cell_angle_gamma   90.00000000
_symmetry_Int_Tables_number   1
_chemical_formula_structural   HfBeNb2
_chemical_formula_sum   'Hf1 Be1 Nb2'
_cell_volume   67.54340217
_cell_formula_units_Z   1
loop_
 _symmetry_equiv_pos_site_id
 _symmetry_equiv_pos_as_xyz
  1  'x, y, z'
loop_
 _atom_site_type_symbol
 _atom_site_label
 _atom_site_symmetry_multiplicity
 _atom_site_fract_x
 _atom_site_fract_y
 _atom_site_fract_z
 _atom_site_occupancy
  Hf  Hf0  1  0.49999912  0.49999912  0.71383685  1
  Be  Be1  1  0.00000000  0.00000000  0.49327800  1
  Nb  Nb2  1  0.00000000  0.00000000  0.00016853  1
  Nb  Nb3  1  0.49999912  0.49999912  0.29271804  1
