# generated using pymatgen
data_SrZrBe2
_symmetry_space_group_name_H-M   'P 1'
_cell_length_a   5.56503233
_cell_length_b   5.56503233
_cell_length_c   5.56503233
_cell_angle_alpha   137.16877242
_cell_angle_beta   137.16877242
_cell_angle_gamma   62.17847767
_symmetry_Int_Tables_number   1
_chemical_formula_structural   SrZrBe2
_chemical_formula_sum   'Sr1 Zr1 Be2'
_cell_volume   78.70779051
_cell_formula_units_Z   1
loop_
 _symmetry_equiv_pos_site_id
 _symmetry_equiv_pos_as_xyz
  1  'x, y, z'
loop_
 _atom_site_type_symbol
 _atom_site_label
 _atom_site_symmetry_multiplicity
 _atom_site_fract_x
 _atom_site_fract_y
 _atom_site_fract_z
 _atom_site_occupancy
  Sr  Sr0  1  0.49999960  0.49999960  0.00000000  1
  Zr  Zr1  1  0.74999906  0.24999980  0.49999926  1
  Be  Be2  1  0.00000000  0.00000000  0.00000000  1
  Be  Be3  1  0.24999980  0.74999906  0.49999926  1
