# generated using pymatgen
data_GePt3
_symmetry_space_group_name_H-M   'P 1'
_cell_length_a   5.65053262
_cell_length_b   5.65053262
_cell_length_c   5.53604220
_cell_angle_alpha   60.41494970
_cell_angle_beta   60.41494970
_cell_angle_gamma   89.80941705
_symmetry_Int_Tables_number   1
_chemical_formula_structural   GePt3
_chemical_formula_sum   'Ge2 Pt6'
_cell_volume   126.73676889
_cell_formula_units_Z   2
loop_
 _symmetry_equiv_pos_site_id
 _symmetry_equiv_pos_as_xyz
  1  'x, y, z'
loop_
 _atom_site_type_symbol
 _atom_site_label
 _atom_site_symmetry_multiplicity
 _atom_site_fract_x
 _atom_site_fract_y
 _atom_site_fract_z
 _atom_site_occupancy
  Ge  Ge0  1  0.27493892  0.27493892  0.50269974  1
  Ge  Ge1  1  0.72506131  0.72506131  0.49729886  1
  Pt  Pt2  1  0.80162406  0.19837651  -0.00000074  1
  Pt  Pt3  1  0.19837651  0.80162406  -0.00000074  1
  Pt  Pt4  1  0.73196969  0.26803054  0.49999930  1
  Pt  Pt5  1  0.26803054  0.73196969  0.49999930  1
  Pt  Pt6  1  0.27498961  0.27498961  0.05690454  1
  Pt  Pt7  1  0.72501062  0.72501062  0.94309406  1
