# generated using pymatgen
data_Ag2S
_symmetry_space_group_name_H-M   'P 1'
_cell_length_a   4.41284781
_cell_length_b   6.94408597
_cell_length_c   7.24955578
_cell_angle_alpha   90.00000000
_cell_angle_beta   90.00000000
_cell_angle_gamma   90.00000000
_symmetry_Int_Tables_number   1
_chemical_formula_structural   Ag2S
_chemical_formula_sum   'Ag8 S4'
_cell_volume   222.14954858
_cell_formula_units_Z   4
loop_
 _symmetry_equiv_pos_site_id
 _symmetry_equiv_pos_as_xyz
  1  'x, y, z'
loop_
 _atom_site_type_symbol
 _atom_site_label
 _atom_site_symmetry_multiplicity
 _atom_site_fract_x
 _atom_site_fract_y
 _atom_site_fract_z
 _atom_site_occupancy
  Ag  Ag0  1  0.24394639  0.02267440  0.60916087  1
  Ag  Ag1  1  0.75605411  0.47732589  0.10916058  1
  Ag  Ag2  1  0.74394663  0.97732618  0.89084000  1
  Ag  Ag3  1  0.25605386  0.52267469  0.39083971  1
  Ag  Ag4  1  0.41313433  0.13719627  0.20846027  1
  Ag  Ag5  1  0.58686616  0.36280402  0.70846056  1
  Ag  Ag6  1  0.91313458  0.86280431  0.29154002  1
  Ag  Ag7  1  0.08686591  0.63719656  0.79154031  1
  S  S8  1  0.12725543  0.25378795  0.91305048  1
  S  S9  1  0.87274507  0.24621234  0.41305019  1
  S  S10  1  0.62725568  0.74621263  0.58695039  1
  S  S11  1  0.37274482  0.75378824  0.08695010  1
