# generated using pymatgen
data_Y3(CoGe2)2
_symmetry_space_group_name_H-M   'P 1'
_cell_length_a   5.72045749
_cell_length_b   5.72045749
_cell_length_c   8.02322808
_cell_angle_alpha   73.43820991
_cell_angle_beta   73.43820991
_cell_angle_gamma   42.50735297
_symmetry_Int_Tables_number   1
_chemical_formula_structural   Y3(CoGe2)2
_chemical_formula_sum   'Y3 Co2 Ge4'
_cell_volume   168.89930630
_cell_formula_units_Z   1
loop_
 _symmetry_equiv_pos_site_id
 _symmetry_equiv_pos_as_xyz
  1  'x, y, z'
loop_
 _atom_site_type_symbol
 _atom_site_label
 _atom_site_symmetry_multiplicity
 _atom_site_fract_x
 _atom_site_fract_y
 _atom_site_fract_z
 _atom_site_occupancy
  Y  Y0  1  0.62317785  0.62317785  0.30679648  1
  Y  Y1  1  0.37682102  0.37682102  0.69320403  1
  Y  Y2  1  0.00000000  0.00000000  0.00000000  1
  Co  Co3  1  0.69269481  0.69269481  0.62738013  1
  Co  Co4  1  0.30730406  0.30730406  0.37262038  1
  Ge  Ge5  1  0.90217827  0.90217827  0.39806637  1
  Ge  Ge6  1  0.09782060  0.09782060  0.60193414  1
  Ge  Ge7  1  0.29260863  0.29260863  0.08132660  1
  Ge  Ge8  1  0.70739024  0.70739024  0.91867391  1
