# generated using pymatgen
data_Ce2InGe2
_symmetry_space_group_name_H-M   'P 1'
_cell_length_a   7.54317811
_cell_length_b   7.54317811
_cell_length_c   4.34208978
_cell_angle_alpha   90.00000000
_cell_angle_beta   90.00000000
_cell_angle_gamma   90.00000000
_symmetry_Int_Tables_number   1
_chemical_formula_structural   Ce2InGe2
_chemical_formula_sum   'Ce4 In2 Ge4'
_cell_volume   247.06289328
_cell_formula_units_Z   2
loop_
 _symmetry_equiv_pos_site_id
 _symmetry_equiv_pos_as_xyz
  1  'x, y, z'
loop_
 _atom_site_type_symbol
 _atom_site_label
 _atom_site_symmetry_multiplicity
 _atom_site_fract_x
 _atom_site_fract_y
 _atom_site_fract_z
 _atom_site_occupancy
  Ce  Ce0  1  0.17968941  0.67968954  0.50000003  1
  Ce  Ce1  1  0.82031084  0.32031071  0.50000003  1
  Ce  Ce2  1  0.32031071  0.17968941  0.50000003  1
  Ce  Ce3  1  0.67968954  0.82031084  0.50000003  1
  In  In4  1  0.00000000  0.00000000  0.00000000  1
  In  In5  1  0.50000013  0.50000013  0.00000000  1
  Ge  Ge6  1  0.38050869  0.88050882  0.00000000  1
  Ge  Ge7  1  0.61949156  0.11949143  0.00000000  1
  Ge  Ge8  1  0.11949143  0.38050869  0.00000000  1
  Ge  Ge9  1  0.88050882  0.61949156  0.00000000  1
