# generated using pymatgen
data_Er3Ni2
_symmetry_space_group_name_H-M   'P 1'
_cell_length_a   7.09172228
_cell_length_b   7.09172228
_cell_length_c   7.09172228
_cell_angle_alpha   72.58015672
_cell_angle_beta   72.58015672
_cell_angle_gamma   72.58015672
_symmetry_Int_Tables_number   1
_chemical_formula_structural   Er3Ni2
_chemical_formula_sum   'Er9 Ni6'
_cell_volume   315.96019441
_cell_formula_units_Z   3
loop_
 _symmetry_equiv_pos_site_id
 _symmetry_equiv_pos_as_xyz
  1  'x, y, z'
loop_
 _atom_site_type_symbol
 _atom_site_label
 _atom_site_symmetry_multiplicity
 _atom_site_fract_x
 _atom_site_fract_y
 _atom_site_fract_z
 _atom_site_occupancy
  Er  Er0  1  0.50000010  0.50000010  0.50000024  1
  Er  Er1  1  0.70706845  0.70706845  0.70706865  1
  Er  Er2  1  0.29293175  0.29293175  0.29293183  1
  Er  Er3  1  0.16161291  0.67150413  0.88831805  1
  Er  Er4  1  0.67150485  0.88831807  0.16161308  1
  Er  Er5  1  0.88831756  0.16161312  0.67150467  1
  Er  Er6  1  0.83838730  0.32849608  0.11168243  1
  Er  Er7  1  0.32849535  0.11168213  0.83838740  1
  Er  Er8  1  0.11168265  0.83838708  0.32849581  1
  Ni  Ni9  1  0.54024148  0.35173899  0.91259654  1
  Ni  Ni10  1  0.35173936  0.91259620  0.54024191  1
  Ni  Ni11  1  0.91259639  0.54024204  0.35173928  1
  Ni  Ni12  1  0.45975872  0.64826122  0.08740394  1
  Ni  Ni13  1  0.64826084  0.08740400  0.45975857  1
  Ni  Ni14  1  0.08740381  0.45975816  0.64826120  1
