# generated using pymatgen
data_CaBeW
_symmetry_space_group_name_H-M   'P 1'
_cell_length_a   2.90652125
_cell_length_b   2.90652125
_cell_length_c   7.11775808
_cell_angle_alpha   90.00000000
_cell_angle_beta   90.00000000
_cell_angle_gamma   120.00000681
_symmetry_Int_Tables_number   1
_chemical_formula_structural   CaBeW
_chemical_formula_sum   'Ca1 Be1 W1'
_cell_volume   52.07398701
_cell_formula_units_Z   1
loop_
 _symmetry_equiv_pos_site_id
 _symmetry_equiv_pos_as_xyz
  1  'x, y, z'
loop_
 _atom_site_type_symbol
 _atom_site_label
 _atom_site_symmetry_multiplicity
 _atom_site_fract_x
 _atom_site_fract_y
 _atom_site_fract_z
 _atom_site_occupancy
  Ca  Ca0  1  0.66666675  0.33333292  0.32654907  1
  Be  Be1  1  0.00000000  0.00000000  0.97306267  1
  W  W2  1  0.33333292  0.66666675  0.70038880  1
