# generated using pymatgen
data_BeZnRe
_symmetry_space_group_name_H-M   'P 1'
_cell_length_a   2.71048517
_cell_length_b   2.71048517
_cell_length_c   6.22925625
_cell_angle_alpha   90.00000000
_cell_angle_beta   90.00000000
_cell_angle_gamma   119.99997724
_symmetry_Int_Tables_number   1
_chemical_formula_structural   BeZnRe
_chemical_formula_sum   'Be1 Zn1 Re1'
_cell_volume   39.63336957
_cell_formula_units_Z   1
loop_
 _symmetry_equiv_pos_site_id
 _symmetry_equiv_pos_as_xyz
  1  'x, y, z'
loop_
 _atom_site_type_symbol
 _atom_site_label
 _atom_site_symmetry_multiplicity
 _atom_site_fract_x
 _atom_site_fract_y
 _atom_site_fract_z
 _atom_site_occupancy
  Be  Be0  1  0.00000000  -0.00000000  0.99626899  1
  Zn  Zn1  1  0.66666596  0.33333179  0.31642961  1
  Re  Re2  1  0.33333179  0.66666596  0.68730261  1
