# generated using pymatgen
data_KCr5Se8
_symmetry_space_group_name_H-M   'P 1'
_cell_length_a   9.61202222
_cell_length_b   9.61202222
_cell_length_c   8.98489444
_cell_angle_alpha   75.49464142
_cell_angle_beta   75.49464142
_cell_angle_gamma   22.10108186
_symmetry_Int_Tables_number   1
_chemical_formula_structural   KCr5Se8
_chemical_formula_sum   'K1 Cr5 Se8'
_cell_volume   301.98510482
_cell_formula_units_Z   1
loop_
 _symmetry_equiv_pos_site_id
 _symmetry_equiv_pos_as_xyz
  1  'x, y, z'
loop_
 _atom_site_type_symbol
 _atom_site_label
 _atom_site_symmetry_multiplicity
 _atom_site_fract_x
 _atom_site_fract_y
 _atom_site_fract_z
 _atom_site_occupancy
  K  K0  1  0.50000006  0.50000006  0.49999937  1
  Cr  Cr1  1  0.00000000  0.00000000  0.00000000  1
  Cr  Cr2  1  0.65731350  0.65731350  0.02534138  1
  Cr  Cr3  1  0.34268661  0.34268661  0.97465737  1
  Cr  Cr4  1  0.70391040  0.70391040  0.66446818  1
  Cr  Cr5  1  0.29608972  0.29608972  0.33553056  1
  Se  Se6  1  0.42525146  0.42525146  0.15618355  1
  Se  Se7  1  0.57474865  0.57474865  0.84381520  1
  Se  Se8  1  0.91512828  0.91512828  0.82049190  1
  Se  Se9  1  0.08487183  0.08487183  0.17950684  1
  Se  Se10  1  0.83081744  0.83081744  0.49222826  1
  Se  Se11  1  0.16918267  0.16918267  0.50777049  1
  Se  Se12  1  0.76213887  0.76213887  0.15627858  1
  Se  Se13  1  0.23786124  0.23786124  0.84372017  1
