# generated using pymatgen
data_Be2VGa
_symmetry_space_group_name_H-M   'P 1'
_cell_length_a   4.45851482
_cell_length_b   4.45851482
_cell_length_c   4.45851482
_cell_angle_alpha   132.88845945
_cell_angle_beta   132.88845945
_cell_angle_gamma   68.82936991
_symmetry_Int_Tables_number   1
_chemical_formula_structural   Be2VGa
_chemical_formula_sum   'Be2 V1 Ga1'
_cell_volume   46.70993903
_cell_formula_units_Z   1
loop_
 _symmetry_equiv_pos_site_id
 _symmetry_equiv_pos_as_xyz
  1  'x, y, z'
loop_
 _atom_site_type_symbol
 _atom_site_label
 _atom_site_symmetry_multiplicity
 _atom_site_fract_x
 _atom_site_fract_y
 _atom_site_fract_z
 _atom_site_occupancy
  Be  Be0  1  0.00000000  0.00000000  0.00000000  1
  Be  Be1  1  0.50000067  0.50000067  0.00000000  1
  V  V2  1  0.75000100  0.25000034  0.50000066  1
  Ga  Ga3  1  0.25000034  0.75000100  0.50000066  1
