# generated using pymatgen
data_UGaNi2
_symmetry_space_group_name_H-M   'P 1'
_cell_length_a   4.43039265
_cell_length_b   4.43115535
_cell_length_c   7.44584602
_cell_angle_alpha   90.00000000
_cell_angle_beta   90.00000000
_cell_angle_gamma   119.99430644
_symmetry_Int_Tables_number   1
_chemical_formula_structural   UGaNi2
_chemical_formula_sum   'U2 Ga2 Ni4'
_cell_volume   126.59856687
_cell_formula_units_Z   2
loop_
 _symmetry_equiv_pos_site_id
 _symmetry_equiv_pos_as_xyz
  1  'x, y, z'
loop_
 _atom_site_type_symbol
 _atom_site_label
 _atom_site_symmetry_multiplicity
 _atom_site_fract_x
 _atom_site_fract_y
 _atom_site_fract_z
 _atom_site_occupancy
  U  U0  1  0.00000000  0.00000000  0.00000000  1
  U  U1  1  0.00000000  0.00000000  0.50000027  1
  Ga  Ga2  1  0.66666202  0.33332371  0.25000013  1
  Ga  Ga3  1  0.33333908  0.66667730  0.75000040  1
  Ni  Ni4  1  0.66670025  0.33340017  0.59586413  1
  Ni  Ni5  1  0.33330084  0.66660084  0.09586386  1
  Ni  Ni6  1  0.33330084  0.66660084  0.40413641  1
  Ni  Ni7  1  0.66670025  0.33340017  0.90413667  1
