# generated using pymatgen
data_NdSi2Rh3
_symmetry_space_group_name_H-M   'P 1'
_cell_length_a   6.68456685
_cell_length_b   6.68456685
_cell_length_c   6.68456685
_cell_angle_alpha   130.31866057
_cell_angle_beta   114.78423586
_cell_angle_gamma   86.20192127
_symmetry_Int_Tables_number   1
_chemical_formula_structural   NdSi2Rh3
_chemical_formula_sum   'Nd2 Si4 Rh6'
_cell_volume   197.48709408
_cell_formula_units_Z   2
loop_
 _symmetry_equiv_pos_site_id
 _symmetry_equiv_pos_as_xyz
  1  'x, y, z'
loop_
 _atom_site_type_symbol
 _atom_site_label
 _atom_site_symmetry_multiplicity
 _atom_site_fract_x
 _atom_site_fract_y
 _atom_site_fract_z
 _atom_site_occupancy
  Nd  Nd0  1  0.74999934  0.46293861  0.71293816  1
  Nd  Nd1  1  0.24999990  0.53706083  0.28706093  1
  Si  Si2  1  0.92124181  0.12044692  0.19920399  1
  Si  Si3  1  0.57875723  0.77796141  0.19920418  1
  Si  Si4  1  0.42124202  0.22203802  0.80079490  1
  Si  Si5  1  0.07875743  0.87955252  0.80079509  1
  Rh  Rh6  1  0.71696803  -0.00000000  0.71696803  1
  Rh  Rh7  1  0.78303066  0.49999980  0.28303086  1
  Rh  Rh8  1  0.28303086  0.00000000  0.28303086  1
  Rh  Rh9  1  0.21696859  0.49999964  0.71696822  1
  Rh  Rh10  1  0.49999962  0.00000008  -0.00000010  1
  Rh  Rh11  1  -0.00000018  -0.00000008  0.49999954  1
