# generated using pymatgen
data_Na3SO4F
_symmetry_space_group_name_H-M   'P 1'
_cell_length_a   5.87065999
_cell_length_b   5.87065999
_cell_length_c   5.87065999
_cell_angle_alpha   83.29551453
_cell_angle_beta   83.29551453
_cell_angle_gamma   83.29551453
_symmetry_Int_Tables_number   1
_chemical_formula_structural   Na3SO4F
_chemical_formula_sum   'Na3 S1 O4 F1'
_cell_volume   198.47884228
_cell_formula_units_Z   1
loop_
 _symmetry_equiv_pos_site_id
 _symmetry_equiv_pos_as_xyz
  1  'x, y, z'
loop_
 _atom_site_type_symbol
 _atom_site_label
 _atom_site_symmetry_multiplicity
 _atom_site_fract_x
 _atom_site_fract_y
 _atom_site_fract_z
 _atom_site_occupancy
  Na  Na0  1  0.38994002  0.38994002  0.98815781  1
  Na  Na1  1  0.98815845  0.38994071  0.38993884  1
  Na  Na2  1  0.38994071  0.98815845  0.38993884  1
  S  S3  1  0.51422991  0.51422991  0.51422884  1
  O  O4  1  0.38116745  0.38116745  0.38116666  1
  O  O5  1  0.66076882  0.66076882  0.34705979  1
  O  O6  1  0.34706126  0.66076845  0.66076763  1
  O  O7  1  0.66076845  0.34706126  0.66076763  1
  F  F8  1  0.14596784  0.14596784  0.14596754  1
