# generated using pymatgen
data_NdCrGe3
_symmetry_space_group_name_H-M   'P 1'
_cell_length_a   6.15398973
_cell_length_b   6.15410852
_cell_length_c   5.73922547
_cell_angle_alpha   90.00000000
_cell_angle_beta   90.00000000
_cell_angle_gamma   119.99674396
_symmetry_Int_Tables_number   1
_chemical_formula_structural   NdCrGe3
_chemical_formula_sum   'Nd2 Cr2 Ge6'
_cell_volume   188.24354133
_cell_formula_units_Z   2
loop_
 _symmetry_equiv_pos_site_id
 _symmetry_equiv_pos_as_xyz
  1  'x, y, z'
loop_
 _atom_site_type_symbol
 _atom_site_label
 _atom_site_symmetry_multiplicity
 _atom_site_fract_x
 _atom_site_fract_y
 _atom_site_fract_z
 _atom_site_occupancy
  Nd  Nd0  1  0.33330212  0.66676682  0.75000059  1
  Nd  Nd1  1  0.66669899  0.33323468  0.25000020  1
  Cr  Cr2  1  0.00000000  0.00000000  0.00000000  1
  Cr  Cr3  1  0.00000000  0.00000000  0.50000039  1
  Ge  Ge4  1  0.19185897  0.38359597  0.25000020  1
  Ge  Ge5  1  0.61639016  0.80811165  0.25000020  1
  Ge  Ge6  1  0.19178936  0.80815679  0.25000020  1
  Ge  Ge7  1  0.80814214  0.61640553  0.75000059  1
  Ge  Ge8  1  0.38361095  0.19188984  0.75000059  1
  Ge  Ge9  1  0.80821175  0.19184470  0.75000059  1
