# generated using pymatgen
data_CeCoGe2
_symmetry_space_group_name_H-M   'P 1'
_cell_length_a   8.62979747
_cell_length_b   8.62979747
_cell_length_c   4.19816208
_cell_angle_alpha   90.00000000
_cell_angle_beta   90.00000000
_cell_angle_gamma   151.93874617
_symmetry_Int_Tables_number   1
_chemical_formula_structural   CeCoGe2
_chemical_formula_sum   'Ce2 Co2 Ge4'
_cell_volume   147.07599269
_cell_formula_units_Z   2
loop_
 _symmetry_equiv_pos_site_id
 _symmetry_equiv_pos_as_xyz
  1  'x, y, z'
loop_
 _atom_site_type_symbol
 _atom_site_label
 _atom_site_symmetry_multiplicity
 _atom_site_fract_x
 _atom_site_fract_y
 _atom_site_fract_z
 _atom_site_occupancy
  Ce  Ce0  1  0.88963161  0.11036714  0.24999988  1
  Ce  Ce1  1  0.11036714  0.88963161  0.74999963  1
  Co  Co2  1  0.68040235  0.31959640  0.24999988  1
  Co  Co3  1  0.31959640  0.68040235  0.74999963  1
  Ge  Ge4  1  0.54361250  0.45638625  0.24999988  1
  Ge  Ge5  1  0.45638625  0.54361250  0.74999963  1
  Ge  Ge6  1  0.25010360  0.74989515  0.24999988  1
  Ge  Ge7  1  0.74989515  0.25010360  0.74999963  1
