# generated using pymatgen
data_Y(Co2B)6
_symmetry_space_group_name_H-M   'P 1'
_cell_length_a   5.94361790
_cell_length_b   5.94361790
_cell_length_c   5.94361790
_cell_angle_alpha   104.04587905
_cell_angle_beta   104.04587905
_cell_angle_gamma   104.04587905
_symmetry_Int_Tables_number   1
_chemical_formula_structural   Y(Co2B)6
_chemical_formula_sum   'Y1 Co12 B6'
_cell_volume   187.17784452
_cell_formula_units_Z   1
loop_
 _symmetry_equiv_pos_site_id
 _symmetry_equiv_pos_as_xyz
  1  'x, y, z'
loop_
 _atom_site_type_symbol
 _atom_site_label
 _atom_site_symmetry_multiplicity
 _atom_site_fract_x
 _atom_site_fract_y
 _atom_site_fract_z
 _atom_site_occupancy
  Y  Y0  1  0.00000000  0.00000000  0.00000000  1
  Co  Co1  1  0.54500400  0.54500400  0.81355311  1
  Co  Co2  1  0.81355284  0.54500402  0.54500436  1
  Co  Co3  1  0.45499674  0.45499674  0.18644813  1
  Co  Co4  1  0.45499672  0.18644790  0.45499689  1
  Co  Co5  1  0.18644790  0.45499672  0.45499689  1
  Co  Co6  1  0.50000034  0.13239919  0.86760169  1
  Co  Co7  1  0.13239922  0.86760152  0.50000062  1
  Co  Co8  1  0.54500402  0.81355284  0.54500436  1
  Co  Co9  1  0.86760155  0.50000040  0.13239956  1
  Co  Co10  1  0.86760152  0.13239922  0.50000062  1
  Co  Co11  1  0.13239919  0.50000034  0.86760169  1
  Co  Co12  1  0.50000040  0.86760155  0.13239956  1
  B  B13  1  0.76762507  0.32224697  0.76762536  1
  B  B14  1  0.76762511  0.76762511  0.32224736  1
  B  B15  1  0.32224697  0.76762507  0.76762536  1
  B  B16  1  0.23237563  0.23237563  0.67775388  1
  B  B17  1  0.23237567  0.67775377  0.23237588  1
  B  B18  1  0.67775377  0.23237567  0.23237588  1
