# generated using pymatgen
data_CeSnRh
_symmetry_space_group_name_H-M   'P 1'
_cell_length_a   7.49527760
_cell_length_b   7.49527760
_cell_length_c   4.07351033
_cell_angle_alpha   90.00000000
_cell_angle_beta   90.00000000
_cell_angle_gamma   119.99724018
_symmetry_Int_Tables_number   1
_chemical_formula_structural   CeSnRh
_chemical_formula_sum   'Ce3 Sn3 Rh3'
_cell_volume   198.19239022
_cell_formula_units_Z   3
loop_
 _symmetry_equiv_pos_site_id
 _symmetry_equiv_pos_as_xyz
  1  'x, y, z'
loop_
 _atom_site_type_symbol
 _atom_site_label
 _atom_site_symmetry_multiplicity
 _atom_site_fract_x
 _atom_site_fract_y
 _atom_site_fract_z
 _atom_site_occupancy
  Ce  Ce0  1  0.58659368  0.00001512  0.49999996  1
  Ce  Ce1  1  0.00001512  0.58659368  0.49999996  1
  Ce  Ce2  1  0.41340868  0.41340868  0.49999996  1
  Sn  Sn3  1  0.25309892  0.00000916  0.00000000  1
  Sn  Sn4  1  0.00000916  0.25309892  0.00000000  1
  Sn  Sn5  1  0.74690431  0.74690431  0.00000000  1
  Rh  Rh6  1  0.33332572  0.66666724  0.00000000  1
  Rh  Rh7  1  0.66666724  0.33332572  0.00000000  1
  Rh  Rh8  1  0.99998235  0.99998235  0.49999996  1
