# generated using pymatgen
data_Rb2ZnCl4
_symmetry_space_group_name_H-M   'P 1'
_cell_length_a   8.68995020
_cell_length_b   8.68995020
_cell_length_c   7.04073544
_cell_angle_alpha   90.01380119
_cell_angle_beta   89.98619881
_cell_angle_gamma   132.20348477
_symmetry_Int_Tables_number   1
_chemical_formula_structural   Rb2ZnCl4
_chemical_formula_sum   'Rb4 Zn2 Cl8'
_cell_volume   393.85131704
_cell_formula_units_Z   2
loop_
 _symmetry_equiv_pos_site_id
 _symmetry_equiv_pos_as_xyz
  1  'x, y, z'
loop_
 _atom_site_type_symbol
 _atom_site_label
 _atom_site_symmetry_multiplicity
 _atom_site_fract_x
 _atom_site_fract_y
 _atom_site_fract_z
 _atom_site_occupancy
  Rb  Rb0  1  0.25453574  0.53703877  0.25011614  1
  Rb  Rb1  1  0.03703855  0.75453596  0.74988375  1
  Rb  Rb2  1  0.53713542  0.25461975  0.24991499  1
  Rb  Rb3  1  0.75461943  0.03713574  0.75008413  1
  Zn  Zn4  1  0.89570953  0.89573028  0.24999655  1
  Zn  Zn5  1  0.39572981  0.39570960  0.75000295  1
  Cl  Cl6  1  0.74105730  0.05077941  0.25007449  1
  Cl  Cl7  1  0.55077909  0.24105762  0.74992462  1
  Cl  Cl8  1  0.05062312  0.74092036  0.24990764  1
  Cl  Cl9  1  0.24092015  0.55062334  0.75009225  1
  Cl  Cl10  1  0.64582677  0.64586900  -0.00006907  1
  Cl  Cl11  1  0.14586881  0.14582657  0.00006907  1
  Cl  Cl12  1  0.14580816  0.14574897  0.50005874  1
  Cl  Cl13  1  0.64574889  0.64580863  0.49994077  1
