# generated using pymatgen
data_Nb2O3
_symmetry_space_group_name_H-M   'P 1'
_cell_length_a   6.05318923
_cell_length_b   6.05318923
_cell_length_c   7.55560865
_cell_angle_alpha   68.51603037
_cell_angle_beta   68.51603037
_cell_angle_gamma   27.56118677
_symmetry_Int_Tables_number   1
_chemical_formula_structural   Nb2O3
_chemical_formula_sum   'Nb4 O6'
_cell_volume   118.63861587
_cell_formula_units_Z   2
loop_
 _symmetry_equiv_pos_site_id
 _symmetry_equiv_pos_as_xyz
  1  'x, y, z'
loop_
 _atom_site_type_symbol
 _atom_site_label
 _atom_site_symmetry_multiplicity
 _atom_site_fract_x
 _atom_site_fract_y
 _atom_site_fract_z
 _atom_site_occupancy
  Nb  Nb0  1  0.83761774  0.83761774  0.84665922  1
  Nb  Nb1  1  0.16238208  0.16238208  0.15333880  1
  Nb  Nb2  1  0.66003688  0.66003688  0.64179782  1
  Nb  Nb3  1  0.33996294  0.33996294  0.35820020  1
  O  O4  1  0.86330848  0.86330848  0.55306602  1
  O  O5  1  0.13669134  0.13669134  0.44693200  1
  O  O6  1  0.80967162  0.80967162  0.15446356  1
  O  O7  1  0.19032820  0.19032820  0.84553446  1
  O  O8  1  0.52607014  0.52607014  0.20233798  1
  O  O9  1  0.47392968  0.47392968  0.79766004  1
