# generated using pymatgen
data_CeMgSn
_symmetry_space_group_name_H-M   'P 1'
_cell_length_a   4.61369040
_cell_length_b   7.66363250
_cell_length_c   9.06939813
_cell_angle_alpha   90.00000000
_cell_angle_beta   90.00000000
_cell_angle_gamma   90.00000000
_symmetry_Int_Tables_number   1
_chemical_formula_structural   CeMgSn
_chemical_formula_sum   'Ce4 Mg4 Sn4'
_cell_volume   320.67240281
_cell_formula_units_Z   4
loop_
 _symmetry_equiv_pos_site_id
 _symmetry_equiv_pos_as_xyz
  1  'x, y, z'
loop_
 _atom_site_type_symbol
 _atom_site_label
 _atom_site_symmetry_multiplicity
 _atom_site_fract_x
 _atom_site_fract_y
 _atom_site_fract_z
 _atom_site_occupancy
  Ce  Ce0  1  0.24999998  0.01888536  0.31891702  1
  Ce  Ce1  1  0.74999993  0.48111448  0.81891713  1
  Ce  Ce2  1  0.74999993  0.98111432  0.68108318  1
  Ce  Ce3  1  0.24999998  0.51888519  0.18108308  1
  Mg  Mg4  1  0.24999998  0.15918654  0.93117054  1
  Mg  Mg5  1  0.74999993  0.34081330  0.43117044  1
  Mg  Mg6  1  0.74999993  0.84081313  0.06882967  1
  Mg  Mg7  1  0.24999998  0.65918638  0.56882977  1
  Sn  Sn8  1  0.24999998  0.27336733  0.61379162  1
  Sn  Sn9  1  0.74999993  0.22663251  0.11379152  1
  Sn  Sn10  1  0.74999993  0.72663234  0.38620858  1
  Sn  Sn11  1  0.24999998  0.77336717  0.88620869  1
