# generated using pymatgen
data_LaCo5
_symmetry_space_group_name_H-M   'P 1'
_cell_length_a   5.02129326
_cell_length_b   5.02129326
_cell_length_c   3.94449439
_cell_angle_alpha   90.00000000
_cell_angle_beta   90.00000000
_cell_angle_gamma   120.02013475
_symmetry_Int_Tables_number   1
_chemical_formula_structural   LaCo5
_chemical_formula_sum   'La1 Co5'
_cell_volume   86.11226192
_cell_formula_units_Z   1
loop_
 _symmetry_equiv_pos_site_id
 _symmetry_equiv_pos_as_xyz
  1  'x, y, z'
loop_
 _atom_site_type_symbol
 _atom_site_label
 _atom_site_symmetry_multiplicity
 _atom_site_fract_x
 _atom_site_fract_y
 _atom_site_fract_z
 _atom_site_occupancy
  La  La0  1  0.00000000  0.00000000  0.00000000  1
  Co  Co1  1  0.33328418  0.66671482  0.00000000  1
  Co  Co2  1  0.66671482  0.33328418  0.00000000  1
  Co  Co3  1  0.49999983  -0.00000033  0.49999944  1
  Co  Co4  1  -0.00000033  0.49999983  0.49999944  1
  Co  Co5  1  0.49999950  0.49999950  0.49999944  1
