# generated using pymatgen
data_Na3(Mn2Te3)2
_symmetry_space_group_name_H-M   'P 1'
_cell_length_a   7.76004367
_cell_length_b   7.76004367
_cell_length_c   7.54154845
_cell_angle_alpha   90.77861652
_cell_angle_beta   90.77861652
_cell_angle_gamma   120.49857249
_symmetry_Int_Tables_number   1
_chemical_formula_structural   Na3(Mn2Te3)2
_chemical_formula_sum   'Na3 Mn4 Te6'
_cell_volume   391.15844767
_cell_formula_units_Z   1
loop_
 _symmetry_equiv_pos_site_id
 _symmetry_equiv_pos_as_xyz
  1  'x, y, z'
loop_
 _atom_site_type_symbol
 _atom_site_label
 _atom_site_symmetry_multiplicity
 _atom_site_fract_x
 _atom_site_fract_y
 _atom_site_fract_z
 _atom_site_occupancy
  Na  Na0  1  0.34187485  0.65812626  0.00000007  1
  Na  Na1  1  0.65812626  0.34187485  0.00000007  1
  Na  Na2  1  0.00000000  0.00000000  0.00000000  1
  Mn  Mn3  1  0.98009955  0.66175254  0.62530456  1
  Mn  Mn4  1  0.33824870  0.01990169  0.37469563  1
  Mn  Mn5  1  0.01990169  0.33824870  0.37469563  1
  Mn  Mn6  1  0.66175254  0.98009955  0.62530456  1
  Te  Te7  1  0.65683666  0.65683666  0.73827303  1
  Te  Te8  1  0.34316458  0.34316458  0.26172717  1
  Te  Te9  1  0.00671312  0.66829908  0.26180213  1
  Te  Te10  1  0.33170216  0.99328812  0.73819806  1
  Te  Te11  1  0.99328812  0.33170216  0.73819806  1
  Te  Te12  1  0.66829908  0.00671312  0.26180213  1
