# generated using pymatgen
data_NbFe2
_symmetry_space_group_name_H-M   'P 1'
_cell_length_a   4.76054653
_cell_length_b   4.76054653
_cell_length_c   7.77069449
_cell_angle_alpha   90.00000000
_cell_angle_beta   90.00000000
_cell_angle_gamma   120.00042413
_symmetry_Int_Tables_number   1
_chemical_formula_structural   NbFe2
_chemical_formula_sum   'Nb4 Fe8'
_cell_volume   152.51137600
_cell_formula_units_Z   4
loop_
 _symmetry_equiv_pos_site_id
 _symmetry_equiv_pos_as_xyz
  1  'x, y, z'
loop_
 _atom_site_type_symbol
 _atom_site_label
 _atom_site_symmetry_multiplicity
 _atom_site_fract_x
 _atom_site_fract_y
 _atom_site_fract_z
 _atom_site_occupancy
  Nb  Nb0  1  0.33333668  0.66666416  0.06546033  1
  Nb  Nb1  1  0.66666416  0.33333668  0.56546005  1
  Nb  Nb2  1  0.66666416  0.33333668  0.93453909  1
  Nb  Nb3  1  0.33333668  0.66666416  0.43453938  1
  Fe  Fe4  1  0.00000000  0.00000000  0.00000000  1
  Fe  Fe5  1  0.00000000  0.00000000  0.49999971  1
  Fe  Fe6  1  0.82923914  0.65845542  0.24999986  1
  Fe  Fe7  1  0.34154541  0.17076170  0.24999986  1
  Fe  Fe8  1  0.82923875  0.17076209  0.24999986  1
  Fe  Fe9  1  0.17076170  0.34154541  0.74999957  1
  Fe  Fe10  1  0.65845542  0.82923914  0.74999957  1
  Fe  Fe11  1  0.17076209  0.82923875  0.74999957  1
