# generated using pymatgen
data_YB2Rh3
_symmetry_space_group_name_H-M   'P 1'
_cell_length_a   5.40458322
_cell_length_b   5.40458322
_cell_length_c   3.15514991
_cell_angle_alpha   89.99988084
_cell_angle_beta   89.99988084
_cell_angle_gamma   119.99953580
_symmetry_Int_Tables_number   1
_chemical_formula_structural   YB2Rh3
_chemical_formula_sum   'Y1 B2 Rh3'
_cell_volume   79.81363288
_cell_formula_units_Z   1
loop_
 _symmetry_equiv_pos_site_id
 _symmetry_equiv_pos_as_xyz
  1  'x, y, z'
loop_
 _atom_site_type_symbol
 _atom_site_label
 _atom_site_symmetry_multiplicity
 _atom_site_fract_x
 _atom_site_fract_y
 _atom_site_fract_z
 _atom_site_occupancy
  Y  Y0  1  0.50000049  0.50000049  0.49999832  1
  B  B1  1  0.16667534  0.83332564  0.49999832  1
  B  B2  1  0.83332564  0.16667534  0.49999832  1
  Rh  Rh3  1  0.00000000  0.00000000  0.00000000  1
  Rh  Rh4  1  0.50000053  0.00000004  -0.00000067  1
  Rh  Rh5  1  0.00000004  0.50000053  -0.00000067  1
