# generated using pymatgen
data_BeInPb2
_symmetry_space_group_name_H-M   'P 1'
_cell_length_a   6.04409661
_cell_length_b   6.04409661
_cell_length_c   6.04409661
_cell_angle_alpha   136.39278505
_cell_angle_beta   136.39278505
_cell_angle_gamma   63.37366447
_symmetry_Int_Tables_number   1
_chemical_formula_structural   BeInPb2
_chemical_formula_sum   'Be1 In1 Pb2'
_cell_volume   103.67982493
_cell_formula_units_Z   1
loop_
 _symmetry_equiv_pos_site_id
 _symmetry_equiv_pos_as_xyz
  1  'x, y, z'
loop_
 _atom_site_type_symbol
 _atom_site_label
 _atom_site_symmetry_multiplicity
 _atom_site_fract_x
 _atom_site_fract_y
 _atom_site_fract_z
 _atom_site_occupancy
  Be  Be0  1  0.49999958  0.49999958  0.00000000  1
  In  In1  1  0.75000059  0.24999979  0.50000080  1
  Pb  Pb2  1  0.00000000  0.00000000  0.00000000  1
  Pb  Pb3  1  0.24999979  0.75000059  0.50000080  1
