# generated using pymatgen
data_ScBeIn
_symmetry_space_group_name_H-M   'P 1'
_cell_length_a   4.31600751
_cell_length_b   4.31600751
_cell_length_c   3.36125795
_cell_angle_alpha   90.00000000
_cell_angle_beta   90.00000000
_cell_angle_gamma   120.00001755
_symmetry_Int_Tables_number   1
_chemical_formula_structural   ScBeIn
_chemical_formula_sum   'Sc1 Be1 In1'
_cell_volume   54.22465292
_cell_formula_units_Z   1
loop_
 _symmetry_equiv_pos_site_id
 _symmetry_equiv_pos_as_xyz
  1  'x, y, z'
loop_
 _atom_site_type_symbol
 _atom_site_label
 _atom_site_symmetry_multiplicity
 _atom_site_fract_x
 _atom_site_fract_y
 _atom_site_fract_z
 _atom_site_occupancy
  Sc  Sc0  1  0.66666615  0.33333237  0.66664267  1
  Be  Be1  1  0.00000000  -0.00000000  0.16671829  1
  In  In2  1  0.33333237  0.66666615  0.16663965  1
