# generated using pymatgen
data_LiBe2V
_symmetry_space_group_name_H-M   'P 1'
_cell_length_a   2.50476864
_cell_length_b   2.50476864
_cell_length_c   7.02609436
_cell_angle_alpha   90.00000000
_cell_angle_beta   90.00000000
_cell_angle_gamma   90.00000000
_symmetry_Int_Tables_number   1
_chemical_formula_structural   LiBe2V
_chemical_formula_sum   'Li1 Be2 V1'
_cell_volume   44.08077422
_cell_formula_units_Z   1
loop_
 _symmetry_equiv_pos_site_id
 _symmetry_equiv_pos_as_xyz
  1  'x, y, z'
loop_
 _atom_site_type_symbol
 _atom_site_label
 _atom_site_symmetry_multiplicity
 _atom_site_fract_x
 _atom_site_fract_y
 _atom_site_fract_z
 _atom_site_occupancy
  Li  Li0  1  0.50000027  0.50000027  0.00000000  1
  Be  Be1  1  0.00000000  0.00000000  0.74690491  1
  Be  Be2  1  0.00000000  0.00000000  0.25309447  1
  V  V3  1  0.50000027  0.50000027  0.49999969  1
