# generated using pymatgen
data_Ca3Al7Ag2
_symmetry_space_group_name_H-M   'P 1'
_cell_length_a   9.48904775
_cell_length_b   9.48904775
_cell_length_c   9.48904775
_cell_angle_alpha   34.48371595
_cell_angle_beta   34.48371595
_cell_angle_gamma   34.48371595
_symmetry_Int_Tables_number   1
_chemical_formula_structural   Ca3Al7Ag2
_chemical_formula_sum   'Ca3 Al7 Ag2'
_cell_volume   244.33041763
_cell_formula_units_Z   1
loop_
 _symmetry_equiv_pos_site_id
 _symmetry_equiv_pos_as_xyz
  1  'x, y, z'
loop_
 _atom_site_type_symbol
 _atom_site_label
 _atom_site_symmetry_multiplicity
 _atom_site_fract_x
 _atom_site_fract_y
 _atom_site_fract_z
 _atom_site_occupancy
  Ca  Ca0  1  0.00000000  0.00000000  0.00000000  1
  Ca  Ca1  1  0.85701045  0.85701045  0.85701215  1
  Ca  Ca2  1  0.14298924  0.14298924  0.14298952  1
  Al  Al3  1  0.49999984  0.49999984  0.50000084  1
  Al  Al4  1  0.41409196  0.92465878  0.41409352  1
  Al  Al5  1  0.92465878  0.41409196  0.41409352  1
  Al  Al6  1  0.41409238  0.41409238  0.92465955  1
  Al  Al7  1  0.07534091  0.58590773  0.58590815  1
  Al  Al8  1  0.58590773  0.07534091  0.58590815  1
  Al  Al9  1  0.58590731  0.58590731  0.07534212  1
  Ag  Ag10  1  0.66399281  0.66399281  0.66399413  1
  Ag  Ag11  1  0.33600688  0.33600688  0.33600754  1
