# generated using pymatgen
data_CaBePt
_symmetry_space_group_name_H-M   'P 1'
_cell_length_a   5.59070240
_cell_length_b   5.59070240
_cell_length_c   5.59070240
_cell_angle_alpha   146.63043006
_cell_angle_beta   146.63043006
_cell_angle_gamma   47.91130425
_symmetry_Int_Tables_number   1
_chemical_formula_structural   CaBePt
_chemical_formula_sum   'Ca1 Be1 Pt1'
_cell_volume   52.65308254
_cell_formula_units_Z   1
loop_
 _symmetry_equiv_pos_site_id
 _symmetry_equiv_pos_as_xyz
  1  'x, y, z'
loop_
 _atom_site_type_symbol
 _atom_site_label
 _atom_site_symmetry_multiplicity
 _atom_site_fract_x
 _atom_site_fract_y
 _atom_site_fract_z
 _atom_site_occupancy
  Ca  Ca0  1  0.32901514  0.32901514  0.00000000  1
  Be  Be1  1  0.05140493  0.05140493  0.00000000  1
  Pt  Pt2  1  0.61957905  0.61957905  0.00000000  1
