# generated using pymatgen
data_BeSi2Pb
_symmetry_space_group_name_H-M   'P 1'
_cell_length_a   3.29892658
_cell_length_b   3.29892658
_cell_length_c   7.07171957
_cell_angle_alpha   90.00000000
_cell_angle_beta   90.00000000
_cell_angle_gamma   90.00000000
_symmetry_Int_Tables_number   1
_chemical_formula_structural   BeSi2Pb
_chemical_formula_sum   'Be1 Si2 Pb1'
_cell_volume   76.96093429
_cell_formula_units_Z   1
loop_
 _symmetry_equiv_pos_site_id
 _symmetry_equiv_pos_as_xyz
  1  'x, y, z'
loop_
 _atom_site_type_symbol
 _atom_site_label
 _atom_site_symmetry_multiplicity
 _atom_site_fract_x
 _atom_site_fract_y
 _atom_site_fract_z
 _atom_site_occupancy
  Be  Be0  1  0.00000000  0.00000000  0.42616144  1
  Si  Si1  1  0.00000000  0.00000000  0.10807686  1
  Si  Si2  1  0.50000052  0.50000052  0.27039312  1
  Pb  Pb3  1  0.50000052  0.50000052  0.69536967  1
