# generated using pymatgen
data_BaTaSe3
_symmetry_space_group_name_H-M   'P 1'
_cell_length_a   7.22766309
_cell_length_b   7.22765719
_cell_length_c   5.89727404
_cell_angle_alpha   90.00000000
_cell_angle_beta   90.00000000
_cell_angle_gamma   120.00002699
_symmetry_Int_Tables_number   1
_chemical_formula_structural   BaTaSe3
_chemical_formula_sum   'Ba2 Ta2 Se6'
_cell_volume   266.79474378
_cell_formula_units_Z   2
loop_
 _symmetry_equiv_pos_site_id
 _symmetry_equiv_pos_as_xyz
  1  'x, y, z'
loop_
 _atom_site_type_symbol
 _atom_site_label
 _atom_site_symmetry_multiplicity
 _atom_site_fract_x
 _atom_site_fract_y
 _atom_site_fract_z
 _atom_site_occupancy
  Ba  Ba0  1  0.66668565  0.33337149  0.74999949  1
  Ba  Ba1  1  0.33331447  0.66662917  0.24999983  1
  Ta  Ta2  1  0.00000000  0.00000000  0.00000000  1
  Ta  Ta3  1  0.00000000  0.00000000  0.49999966  1
  Se  Se4  1  0.34815624  0.17407505  0.24999983  1
  Se  Se5  1  0.82591860  0.17407494  0.24999983  1
  Se  Se6  1  0.82592091  0.65184213  0.24999983  1
  Se  Se7  1  0.65184387  0.82592561  0.74999949  1
  Se  Se8  1  0.17408151  0.82592572  0.74999949  1
  Se  Se9  1  0.17407921  0.34815853  0.74999949  1
