# generated using pymatgen
data_BeSn2Ge
_symmetry_space_group_name_H-M   'P 1'
_cell_length_a   3.39913202
_cell_length_b   3.39913202
_cell_length_c   7.49409299
_cell_angle_alpha   90.00000000
_cell_angle_beta   90.00000000
_cell_angle_gamma   90.00000000
_symmetry_Int_Tables_number   1
_chemical_formula_structural   BeSn2Ge
_chemical_formula_sum   'Be1 Sn2 Ge1'
_cell_volume   86.58748834
_cell_formula_units_Z   1
loop_
 _symmetry_equiv_pos_site_id
 _symmetry_equiv_pos_as_xyz
  1  'x, y, z'
loop_
 _atom_site_type_symbol
 _atom_site_label
 _atom_site_symmetry_multiplicity
 _atom_site_fract_x
 _atom_site_fract_y
 _atom_site_fract_z
 _atom_site_occupancy
  Be  Be0  1  0.00000000  0.00000000  0.56342543  1
  Sn  Sn1  1  0.00000000  0.00000000  0.93957858  1
  Sn  Sn2  1  0.49999970  0.49999970  0.30996216  1
  Ge  Ge3  1  0.49999970  0.49999970  0.68703283  1
