# generated using pymatgen
data_CaFeO3
_symmetry_space_group_name_H-M   'P 1'
_cell_length_a   7.25854589
_cell_length_b   5.52218082
_cell_length_c   11.06331238
_cell_angle_alpha   60.05664729
_cell_angle_beta   112.09661225
_cell_angle_gamma   138.90579509
_symmetry_Int_Tables_number   1
_chemical_formula_structural   CaFeO3
_chemical_formula_sum   'Ca4 Fe4 O12'
_cell_volume   252.57284927
_cell_formula_units_Z   4
loop_
 _symmetry_equiv_pos_site_id
 _symmetry_equiv_pos_as_xyz
  1  'x, y, z'
loop_
 _atom_site_type_symbol
 _atom_site_label
 _atom_site_symmetry_multiplicity
 _atom_site_fract_x
 _atom_site_fract_y
 _atom_site_fract_z
 _atom_site_occupancy
  Ca  Ca0  1  -0.00001199  0.83349424  0.16650679  1
  Ca  Ca1  1  0.00001142  0.83349246  0.66650659  1
  Ca  Ca2  1  0.00001154  0.16650624  0.83349280  1
  Ca  Ca3  1  -0.00001188  0.16650802  0.33349300  1
  Fe  Fe4  1  -0.00000011  0.50000002  0.00000000  1
  Fe  Fe5  1  -0.00000023  0.50000024  0.49999979  1
  Fe  Fe6  1  0.50000026  0.00000032  0.00000000  1
  Fe  Fe7  1  0.50000014  0.00000054  0.49999979  1
  O  O8  1  0.75628234  -0.00901897  0.63296554  1
  O  O9  1  0.24371784  0.74308837  0.13296575  1
  O  O10  1  0.75306159  0.51986655  -0.00000948  1
  O  O11  1  0.24693858  0.48015330  0.49999031  1
  O  O12  1  0.24693870  0.48013411  0.00000948  1
  O  O13  1  0.24372358  0.74304529  0.63297723  1
  O  O14  1  0.75627648  0.25695582  0.36702236  1
  O  O15  1  0.24372369  0.00900034  0.86702216  1
  O  O16  1  0.75628222  0.25691274  0.86703384  1
  O  O17  1  0.75627659  -0.00899927  0.13297743  1
  O  O18  1  0.75306148  0.51984780  0.50000928  1
  O  O19  1  0.24371795  0.00902005  0.36703405  1
