# generated using pymatgen
data_UB4Mo
_symmetry_space_group_name_H-M   'P 1'
_cell_length_a   5.92538106
_cell_length_b   5.92538106
_cell_length_c   3.69809450
_cell_angle_alpha   90.00000000
_cell_angle_beta   90.00000000
_cell_angle_gamma   103.81898453
_symmetry_Int_Tables_number   1
_chemical_formula_structural   UB4Mo
_chemical_formula_sum   'U2 B8 Mo2'
_cell_volume   126.08240597
_cell_formula_units_Z   2
loop_
 _symmetry_equiv_pos_site_id
 _symmetry_equiv_pos_as_xyz
  1  'x, y, z'
loop_
 _atom_site_type_symbol
 _atom_site_label
 _atom_site_symmetry_multiplicity
 _atom_site_fract_x
 _atom_site_fract_y
 _atom_site_fract_z
 _atom_site_occupancy
  U  U0  1  0.69897502  0.30102495  0.00000000  1
  U  U1  1  0.30102495  0.69897502  0.00000000  1
  B  B2  1  0.61697460  0.93614928  0.49999939  1
  B  B3  1  0.38302536  0.06385069  0.49999939  1
  B  B4  1  0.06385069  0.38302536  0.49999939  1
  B  B5  1  0.93614928  0.61697460  0.49999939  1
  B  B6  1  0.61996744  0.61996744  0.49999939  1
  B  B7  1  0.38003253  0.38003253  0.49999939  1
  B  B8  1  0.90708254  0.09291742  0.49999939  1
  B  B9  1  0.09291742  0.90708254  0.49999939  1
  Mo  Mo10  1  0.81680671  0.81680671  0.00000000  1
  Mo  Mo11  1  0.18319325  0.18319325  0.00000000  1
