# generated using pymatgen
data_Nd3Pt4
_symmetry_space_group_name_H-M   'P 1'
_cell_length_a   8.13276031
_cell_length_b   8.13276031
_cell_length_c   8.13276031
_cell_angle_alpha   114.43757257
_cell_angle_beta   114.43757257
_cell_angle_gamma   114.43757257
_symmetry_Int_Tables_number   1
_chemical_formula_structural   Nd3Pt4
_chemical_formula_sum   'Nd6 Pt8'
_cell_volume   315.92804474
_cell_formula_units_Z   2
loop_
 _symmetry_equiv_pos_site_id
 _symmetry_equiv_pos_as_xyz
  1  'x, y, z'
loop_
 _atom_site_type_symbol
 _atom_site_label
 _atom_site_symmetry_multiplicity
 _atom_site_fract_x
 _atom_site_fract_y
 _atom_site_fract_z
 _atom_site_occupancy
  Nd  Nd0  1  0.97106606  0.59463169  0.71907172  1
  Nd  Nd1  1  0.59463163  0.71907130  0.97106643  1
  Nd  Nd2  1  0.71907139  0.97106609  0.59463205  1
  Nd  Nd3  1  0.02893336  0.40536773  0.28092818  1
  Nd  Nd4  1  0.40536779  0.28092812  0.02893348  1
  Nd  Nd5  1  0.28092803  0.02893333  0.40536786  1
  Pt  Pt6  1  0.00000000  0.00000000  0.00000000  1
  Pt  Pt7  1  0.49999971  0.49999971  0.49999995  1
  Pt  Pt8  1  0.94030806  0.77619469  0.44658197  1
  Pt  Pt9  1  0.77619457  0.44658157  0.94030836  1
  Pt  Pt10  1  0.44658161  0.94030798  0.77619498  1
  Pt  Pt11  1  0.05969135  0.22380472  0.55341793  1
  Pt  Pt12  1  0.22380484  0.55341784  0.05969155  1
  Pt  Pt13  1  0.55341780  0.05969143  0.22380493  1
