# generated using pymatgen
data_Ce3Al
_symmetry_space_group_name_H-M   'P 1'
_cell_length_a   6.73939566
_cell_length_b   6.73939566
_cell_length_c   5.23544577
_cell_angle_alpha   90.00000000
_cell_angle_beta   90.00000000
_cell_angle_gamma   119.99729607
_symmetry_Int_Tables_number   1
_chemical_formula_structural   Ce3Al
_chemical_formula_sum   'Ce6 Al2'
_cell_volume   205.93873312
_cell_formula_units_Z   2
loop_
 _symmetry_equiv_pos_site_id
 _symmetry_equiv_pos_as_xyz
  1  'x, y, z'
loop_
 _atom_site_type_symbol
 _atom_site_label
 _atom_site_symmetry_multiplicity
 _atom_site_fract_x
 _atom_site_fract_y
 _atom_site_fract_z
 _atom_site_occupancy
  Ce  Ce0  1  0.81926632  0.63845416  0.25000020  1
  Ce  Ce1  1  0.36154716  0.18073500  0.25000020  1
  Ce  Ce2  1  0.81920434  0.18079699  0.25000020  1
  Ce  Ce3  1  0.18073500  0.36154716  0.75000061  1
  Ce  Ce4  1  0.63845416  0.81926632  0.75000061  1
  Ce  Ce5  1  0.18079699  0.81920434  0.75000061  1
  Al  Al6  1  0.33335845  0.66664287  0.25000020  1
  Al  Al7  1  0.66664287  0.33335845  0.75000061  1
