# generated using pymatgen
data_BeSi2Sn
_symmetry_space_group_name_H-M   'P 1'
_cell_length_a   5.85573210
_cell_length_b   5.85573210
_cell_length_c   5.85573210
_cell_angle_alpha   143.53433479
_cell_angle_beta   143.53433479
_cell_angle_gamma   52.52419657
_symmetry_Int_Tables_number   1
_chemical_formula_structural   BeSi2Sn
_chemical_formula_sum   'Be1 Si2 Sn1'
_cell_volume   70.50869300
_cell_formula_units_Z   1
loop_
 _symmetry_equiv_pos_site_id
 _symmetry_equiv_pos_as_xyz
  1  'x, y, z'
loop_
 _atom_site_type_symbol
 _atom_site_label
 _atom_site_symmetry_multiplicity
 _atom_site_fract_x
 _atom_site_fract_y
 _atom_site_fract_z
 _atom_site_occupancy
  Be  Be0  1  0.75000085  0.25000002  0.50000082  1
  Si  Si1  1  0.00000000  0.00000000  0.00000000  1
  Si  Si2  1  0.50000005  0.50000005  0.00000000  1
  Sn  Sn3  1  0.25000002  0.75000085  0.50000082  1
