# generated using pymatgen
data_SrSi6
_symmetry_space_group_name_H-M   'P 1'
_cell_length_a   5.63397713
_cell_length_b   5.63397713
_cell_length_c   11.80197155
_cell_angle_alpha   90.00000000
_cell_angle_beta   90.00000000
_cell_angle_gamma   132.90710922
_symmetry_Int_Tables_number   1
_chemical_formula_structural   SrSi6
_chemical_formula_sum   'Sr2 Si12'
_cell_volume   274.38963657
_cell_formula_units_Z   2
loop_
 _symmetry_equiv_pos_site_id
 _symmetry_equiv_pos_as_xyz
  1  'x, y, z'
loop_
 _atom_site_type_symbol
 _atom_site_label
 _atom_site_symmetry_multiplicity
 _atom_site_fract_x
 _atom_site_fract_y
 _atom_site_fract_z
 _atom_site_occupancy
  Sr  Sr0  1  0.27248641  0.72751330  0.74999990  1
  Sr  Sr1  1  0.72751330  0.27248641  0.24999997  1
  Si  Si2  1  0.24743321  0.75256650  0.46150524  1
  Si  Si3  1  0.75256650  0.24743321  0.96150517  1
  Si  Si4  1  0.24743321  0.75256650  0.03849470  1
  Si  Si5  1  0.75256650  0.24743321  0.53849463  1
  Si  Si6  1  0.55746053  0.44253918  0.64804691  1
  Si  Si7  1  0.44253918  0.55746053  0.14804697  1
  Si  Si8  1  0.55746053  0.44253918  0.85195290  1
  Si  Si9  1  0.44253918  0.55746053  0.35195296  1
  Si  Si10  1  0.02336325  0.97663647  0.39956093  1
  Si  Si11  1  0.97663647  0.02336325  0.89956086  1
  Si  Si12  1  0.02336325  0.97663647  0.10043901  1
  Si  Si13  1  0.97663647  0.02336325  0.60043894  1
