# generated using pymatgen
data_NaBe2Tc
_symmetry_space_group_name_H-M   'P 1'
_cell_length_a   3.03412002
_cell_length_b   3.03412002
_cell_length_c   6.28800532
_cell_angle_alpha   90.00000000
_cell_angle_beta   90.00000000
_cell_angle_gamma   90.00000000
_symmetry_Int_Tables_number   1
_chemical_formula_structural   NaBe2Tc
_chemical_formula_sum   'Na1 Be2 Tc1'
_cell_volume   57.88664944
_cell_formula_units_Z   1
loop_
 _symmetry_equiv_pos_site_id
 _symmetry_equiv_pos_as_xyz
  1  'x, y, z'
loop_
 _atom_site_type_symbol
 _atom_site_label
 _atom_site_symmetry_multiplicity
 _atom_site_fract_x
 _atom_site_fract_y
 _atom_site_fract_z
 _atom_site_occupancy
  Na  Na0  1  0.50000000  0.50000000  0.00000000  1
  Be  Be1  1  0.00000000  0.00000000  0.66084961  1
  Be  Be2  1  0.00000000  0.00000000  0.33915114  1
  Tc  Tc3  1  0.50000000  0.50000000  0.50000037  1
