# generated using pymatgen
data_TbGeRh
_symmetry_space_group_name_H-M   'P 1'
_cell_length_a   4.33529230
_cell_length_b   6.95587403
_cell_length_c   7.53782733
_cell_angle_alpha   90.00000000
_cell_angle_beta   90.00000000
_cell_angle_gamma   90.00000000
_symmetry_Int_Tables_number   1
_chemical_formula_structural   TbGeRh
_chemical_formula_sum   'Tb4 Ge4 Rh4'
_cell_volume   227.30881476
_cell_formula_units_Z   4
loop_
 _symmetry_equiv_pos_site_id
 _symmetry_equiv_pos_as_xyz
  1  'x, y, z'
loop_
 _atom_site_type_symbol
 _atom_site_label
 _atom_site_symmetry_multiplicity
 _atom_site_fract_x
 _atom_site_fract_y
 _atom_site_fract_z
 _atom_site_occupancy
  Tb  Tb0  1  0.24999987  0.49923842  0.69530454  1
  Tb  Tb1  1  0.74999960  0.00076129  0.19530437  1
  Tb  Tb2  1  0.74999960  0.50076100  0.30469581  1
  Tb  Tb3  1  0.24999987  0.99923813  0.80469599  1
  Ge  Ge4  1  0.24999987  0.79053266  0.39763531  1
  Ge  Ge5  1  0.74999960  0.70946647  0.89763549  1
  Ge  Ge6  1  0.74999960  0.20946676  0.60236504  1
  Ge  Ge7  1  0.24999987  0.29053295  0.10236487  1
  Rh  Rh8  1  0.24999987  0.15923476  0.42876347  1
  Rh  Rh9  1  0.74999960  0.34076495  0.92876365  1
  Rh  Rh10  1  0.74999960  0.84076467  0.57123688  1
  Rh  Rh11  1  0.24999987  0.65923447  0.07123671  1
