# generated using pymatgen
data_Be2TlRe
_symmetry_space_group_name_H-M   'P 1'
_cell_length_a   5.03129676
_cell_length_b   5.03129676
_cell_length_c   5.03129676
_cell_angle_alpha   138.96243850
_cell_angle_beta   138.96243850
_cell_angle_gamma   59.43213035
_symmetry_Int_Tables_number   1
_chemical_formula_structural   Be2TlRe
_chemical_formula_sum   'Be2 Tl1 Re1'
_cell_volume   54.35976886
_cell_formula_units_Z   1
loop_
 _symmetry_equiv_pos_site_id
 _symmetry_equiv_pos_as_xyz
  1  'x, y, z'
loop_
 _atom_site_type_symbol
 _atom_site_label
 _atom_site_symmetry_multiplicity
 _atom_site_fract_x
 _atom_site_fract_y
 _atom_site_fract_z
 _atom_site_occupancy
  Be  Be0  1  0.00000000  0.00000000  0.00000000  1
  Be  Be1  1  0.24999978  0.74999924  0.49999946  1
  Tl  Tl2  1  0.74999924  0.24999978  0.49999946  1
  Re  Re3  1  0.49999957  0.49999957  0.00000000  1
