# generated using pymatgen
data_Zr5Sn3
_symmetry_space_group_name_H-M   'P 1'
_cell_length_a   8.57929839
_cell_length_b   8.57929839
_cell_length_c   5.84498875
_cell_angle_alpha   90.00000000
_cell_angle_beta   90.00000000
_cell_angle_gamma   119.99998964
_symmetry_Int_Tables_number   1
_chemical_formula_structural   Zr5Sn3
_chemical_formula_sum   'Zr10 Sn6'
_cell_volume   372.57859720
_cell_formula_units_Z   2
loop_
 _symmetry_equiv_pos_site_id
 _symmetry_equiv_pos_as_xyz
  1  'x, y, z'
loop_
 _atom_site_type_symbol
 _atom_site_label
 _atom_site_symmetry_multiplicity
 _atom_site_fract_x
 _atom_site_fract_y
 _atom_site_fract_z
 _atom_site_occupancy
  Zr  Zr0  1  0.33333353  0.66666650  0.00000000  1
  Zr  Zr1  1  0.66666650  0.33333353  0.50000011  1
  Zr  Zr2  1  0.66666650  0.33333353  0.00000000  1
  Zr  Zr3  1  0.33333353  0.66666650  0.50000011  1
  Zr  Zr4  1  0.24819322  -0.00000015  0.25000005  1
  Zr  Zr5  1  -0.00000015  0.24819322  0.25000005  1
  Zr  Zr6  1  0.75180772  0.75180772  0.25000005  1
  Zr  Zr7  1  0.75180680  0.00000016  0.75000016  1
  Zr  Zr8  1  0.00000016  0.75180680  0.75000016  1
  Zr  Zr9  1  0.24819231  0.24819231  0.75000016  1
  Sn  Sn10  1  0.60985690  -0.00000079  0.25000005  1
  Sn  Sn11  1  -0.00000079  0.60985690  0.25000005  1
  Sn  Sn12  1  0.39014296  0.39014296  0.25000005  1
  Sn  Sn13  1  0.39014312  0.00000081  0.75000016  1
  Sn  Sn14  1  0.00000081  0.39014312  0.75000016  1
  Sn  Sn15  1  0.60985707  0.60985707  0.75000016  1
