# generated using pymatgen
data_BaCaBr2
_symmetry_space_group_name_H-M   'P 1'
_cell_length_a   4.20253194
_cell_length_b   4.20253194
_cell_length_c   7.94260083
_cell_angle_alpha   90.00000000
_cell_angle_beta   90.00000000
_cell_angle_gamma   90.00000000
_symmetry_Int_Tables_number   1
_chemical_formula_structural   BaCaBr2
_chemical_formula_sum   'Ba1 Ca1 Br2'
_cell_volume   140.27645520
_cell_formula_units_Z   1
loop_
 _symmetry_equiv_pos_site_id
 _symmetry_equiv_pos_as_xyz
  1  'x, y, z'
loop_
 _atom_site_type_symbol
 _atom_site_label
 _atom_site_symmetry_multiplicity
 _atom_site_fract_x
 _atom_site_fract_y
 _atom_site_fract_z
 _atom_site_occupancy
  Ba  Ba0  1  0.49999977  0.49999977  0.81046370  1
  Ca  Ca1  1  0.00000000  0.00000000  0.38964726  1
  Br  Br2  1  0.00000000  0.00000000  0.00676431  1
  Br  Br3  1  0.49999977  0.49999977  0.29312357  1
