# generated using pymatgen
data_ZrBeIr
_symmetry_space_group_name_H-M   'P 1'
_cell_length_a   4.09508619
_cell_length_b   4.09508619
_cell_length_c   3.19239081
_cell_angle_alpha   90.00000000
_cell_angle_beta   90.00000000
_cell_angle_gamma   119.99999374
_symmetry_Int_Tables_number   1
_chemical_formula_structural   ZrBeIr
_chemical_formula_sum   'Zr1 Be1 Ir1'
_cell_volume   46.36313617
_cell_formula_units_Z   1
loop_
 _symmetry_equiv_pos_site_id
 _symmetry_equiv_pos_as_xyz
  1  'x, y, z'
loop_
 _atom_site_type_symbol
 _atom_site_label
 _atom_site_symmetry_multiplicity
 _atom_site_fract_x
 _atom_site_fract_y
 _atom_site_fract_z
 _atom_site_occupancy
  Zr  Zr0  1  0.66666626  0.33333213  0.33332676  1
  Be  Be1  1  0.00000000  0.00000000  0.83329780  1
  Ir  Ir2  1  0.33333213  0.66666626  0.83337493  1
