# generated using pymatgen
data_SrAg
_symmetry_space_group_name_H-M   'P 1'
_cell_length_a   4.78841819
_cell_length_b   6.31577843
_cell_length_c   16.40386285
_cell_angle_alpha   90.00000000
_cell_angle_beta   90.00000000
_cell_angle_gamma   90.00000000
_symmetry_Int_Tables_number   1
_chemical_formula_structural   SrAg
_chemical_formula_sum   'Sr8 Ag8'
_cell_volume   496.09527081
_cell_formula_units_Z   8
loop_
 _symmetry_equiv_pos_site_id
 _symmetry_equiv_pos_as_xyz
  1  'x, y, z'
loop_
 _atom_site_type_symbol
 _atom_site_label
 _atom_site_symmetry_multiplicity
 _atom_site_fract_x
 _atom_site_fract_y
 _atom_site_fract_z
 _atom_site_occupancy
  Sr  Sr0  1  0.75000028  0.48710426  0.28489718  1
  Sr  Sr1  1  0.25000009  0.98710439  0.21510274  1
  Sr  Sr2  1  0.25000009  0.51289598  0.71510265  1
  Sr  Sr3  1  0.75000028  0.01289586  0.78489709  1
  Sr  Sr4  1  0.75000028  0.25479045  0.03471398  1
  Sr  Sr5  1  0.25000009  0.75479058  0.46528593  1
  Sr  Sr6  1  0.25000009  0.74520980  0.96528585  1
  Sr  Sr7  1  0.75000028  0.24520967  0.53471389  1
  Ag  Ag8  1  0.75000028  0.99122722  0.35632764  1
  Ag  Ag9  1  0.25000009  0.49122710  0.14367228  1
  Ag  Ag10  1  0.25000009  0.00877302  0.64367219  1
  Ag  Ag11  1  0.75000028  0.50877315  0.85632755  1
  Ag  Ag12  1  0.75000028  0.75007496  0.10683699  1
  Ag  Ag13  1  0.25000009  0.25007483  0.39316293  1
  Ag  Ag14  1  0.25000009  0.24992529  0.89316284  1
  Ag  Ag15  1  0.75000028  0.74992541  0.60683690  1
