# generated using pymatgen
data_BaSrIr2
_symmetry_space_group_name_H-M   'P 1'
_cell_length_a   4.83159679
_cell_length_b   4.83159679
_cell_length_c   4.22316125
_cell_angle_alpha   90.00000000
_cell_angle_beta   90.00000000
_cell_angle_gamma   90.00000000
_symmetry_Int_Tables_number   1
_chemical_formula_structural   BaSrIr2
_chemical_formula_sum   'Ba1 Sr1 Ir2'
_cell_volume   98.58685945
_cell_formula_units_Z   1
loop_
 _symmetry_equiv_pos_site_id
 _symmetry_equiv_pos_as_xyz
  1  'x, y, z'
loop_
 _atom_site_type_symbol
 _atom_site_label
 _atom_site_symmetry_multiplicity
 _atom_site_fract_x
 _atom_site_fract_y
 _atom_site_fract_z
 _atom_site_occupancy
  Ba  Ba0  1  0.00000000  0.00000000  0.49999985  1
  Sr  Sr1  1  0.50000033  0.50000033  0.49999985  1
  Ir  Ir2  1  0.50000033  0.00000000  0.00000000  1
  Ir  Ir3  1  0.00000000  0.50000033  0.00000000  1
