# generated using pymatgen
data_Be2FeBi
_symmetry_space_group_name_H-M   'P 1'
_cell_length_a   2.98535106
_cell_length_b   2.98535106
_cell_length_c   6.59943860
_cell_angle_alpha   90.00000000
_cell_angle_beta   90.00000000
_cell_angle_gamma   90.00000000
_symmetry_Int_Tables_number   1
_chemical_formula_structural   Be2FeBi
_chemical_formula_sum   'Be2 Fe1 Bi1'
_cell_volume   58.81631491
_cell_formula_units_Z   1
loop_
 _symmetry_equiv_pos_site_id
 _symmetry_equiv_pos_as_xyz
  1  'x, y, z'
loop_
 _atom_site_type_symbol
 _atom_site_label
 _atom_site_symmetry_multiplicity
 _atom_site_fract_x
 _atom_site_fract_y
 _atom_site_fract_z
 _atom_site_occupancy
  Be  Be0  1  0.00000000  0.00000000  0.64858871  1
  Be  Be1  1  0.00000000  0.00000000  0.35141150  1
  Fe  Fe2  1  0.49999982  0.49999982  0.50000011  1
  Bi  Bi3  1  0.49999982  0.49999982  0.00000000  1
