# generated using pymatgen
data_CeCo4B
_symmetry_space_group_name_H-M   'P 1'
_cell_length_a   4.94710738
_cell_length_b   4.94710738
_cell_length_c   6.86417714
_cell_angle_alpha   90.00000000
_cell_angle_beta   90.00000000
_cell_angle_gamma   119.64246428
_symmetry_Int_Tables_number   1
_chemical_formula_structural   CeCo4B
_chemical_formula_sum   'Ce2 Co8 B2'
_cell_volume   146.00751298
_cell_formula_units_Z   2
loop_
 _symmetry_equiv_pos_site_id
 _symmetry_equiv_pos_as_xyz
  1  'x, y, z'
loop_
 _atom_site_type_symbol
 _atom_site_label
 _atom_site_symmetry_multiplicity
 _atom_site_fract_x
 _atom_site_fract_y
 _atom_site_fract_z
 _atom_site_occupancy
  Ce  Ce0  1  0.00000000  0.00000000  0.00000000  1
  Ce  Ce1  1  0.00000000  0.00000000  0.50000021  1
  Co  Co2  1  0.29628451  0.70371585  0.00000000  1
  Co  Co3  1  0.70371585  0.29628451  0.00000000  1
  Co  Co4  1  0.49999997  0.00000022  0.29810561  1
  Co  Co5  1  0.00000022  0.49999997  0.29810561  1
  Co  Co6  1  0.50000018  0.50000018  0.26190607  1
  Co  Co7  1  0.00000022  0.49999997  0.70189480  1
  Co  Co8  1  0.49999997  0.00000022  0.70189480  1
  Co  Co9  1  0.50000018  0.50000018  0.73809435  1
  B  B10  1  0.35077902  0.64922135  0.50000021  1
  B  B11  1  0.64922135  0.35077902  0.50000021  1
