# generated using pymatgen
data_Mn2BeRh
_symmetry_space_group_name_H-M   'P 1'
_cell_length_a   4.66278601
_cell_length_b   4.66278601
_cell_length_c   4.66278601
_cell_angle_alpha   138.68706145
_cell_angle_beta   138.68706145
_cell_angle_gamma   59.85234478
_symmetry_Int_Tables_number   1
_chemical_formula_structural   Mn2BeRh
_chemical_formula_sum   'Mn2 Be1 Rh1'
_cell_volume   43.73390769
_cell_formula_units_Z   1
loop_
 _symmetry_equiv_pos_site_id
 _symmetry_equiv_pos_as_xyz
  1  'x, y, z'
loop_
 _atom_site_type_symbol
 _atom_site_label
 _atom_site_symmetry_multiplicity
 _atom_site_fract_x
 _atom_site_fract_y
 _atom_site_fract_z
 _atom_site_occupancy
  Mn  Mn0  1  0.00000000  0.00000000  0.00000000  1
  Mn  Mn1  1  0.49999977  0.49999977  0.00000000  1
  Be  Be2  1  0.74999891  0.24999988  0.49999903  1
  Rh  Rh3  1  0.24999988  0.74999891  0.49999903  1
