# generated using pymatgen
data_LaAsRh
_symmetry_space_group_name_H-M   'P 1'
_cell_length_a   8.14101375
_cell_length_b   8.14101375
_cell_length_c   8.14101375
_cell_angle_alpha   150.11677982
_cell_angle_beta   150.11677982
_cell_angle_gamma   42.77000993
_symmetry_Int_Tables_number   1
_chemical_formula_structural   LaAsRh
_chemical_formula_sum   'La2 As2 Rh2'
_cell_volume   133.59736410
_cell_formula_units_Z   2
loop_
 _symmetry_equiv_pos_site_id
 _symmetry_equiv_pos_as_xyz
  1  'x, y, z'
loop_
 _atom_site_type_symbol
 _atom_site_label
 _atom_site_symmetry_multiplicity
 _atom_site_fract_x
 _atom_site_fract_y
 _atom_site_fract_z
 _atom_site_occupancy
  La  La0  1  0.58162663  0.58162663  0.00000000  1
  La  La1  1  0.33162647  0.83162539  0.49999892  1
  As  As2  1  0.00022144  0.00022144  0.00000000  1
  As  As3  1  0.75022051  0.25022159  0.49999892  1
  Rh  Rh4  1  0.16406239  0.16406239  0.00000000  1
  Rh  Rh5  1  0.91406147  0.41406255  0.49999892  1
