# generated using pymatgen
data_NbPRh
_symmetry_space_group_name_H-M   'P 1'
_cell_length_a   3.80771546
_cell_length_b   6.34744513
_cell_length_c   7.21660921
_cell_angle_alpha   90.00000000
_cell_angle_beta   90.00000000
_cell_angle_gamma   90.00000000
_symmetry_Int_Tables_number   1
_chemical_formula_structural   NbPRh
_chemical_formula_sum   'Nb4 P4 Rh4'
_cell_volume   174.42014007
_cell_formula_units_Z   4
loop_
 _symmetry_equiv_pos_site_id
 _symmetry_equiv_pos_as_xyz
  1  'x, y, z'
loop_
 _atom_site_type_symbol
 _atom_site_label
 _atom_site_symmetry_multiplicity
 _atom_site_fract_x
 _atom_site_fract_y
 _atom_site_fract_z
 _atom_site_occupancy
  Nb  Nb0  1  0.25000030  0.03056222  0.83159051  1
  Nb  Nb1  1  0.75000089  0.46943816  0.33159045  1
  Nb  Nb2  1  0.75000089  0.96943854  0.16840960  1
  Nb  Nb3  1  0.25000030  0.53056261  0.66840966  1
  P  P4  1  0.25000030  0.76252496  0.37595128  1
  P  P5  1  0.75000089  0.73747619  0.87595134  1
  P  P6  1  0.75000089  0.23747581  0.62404883  1
  P  P7  1  0.25000030  0.26252458  0.12404877  1
  Rh  Rh8  1  0.25000030  0.14670234  0.43713397  1
  Rh  Rh9  1  0.75000089  0.35329805  0.93713403  1
  Rh  Rh10  1  0.75000089  0.85329843  0.56286613  1
  Rh  Rh11  1  0.25000030  0.64670272  0.06286608  1
