# generated using pymatgen
data_Ca(GaP)2
_symmetry_space_group_name_H-M   'P 1'
_cell_length_a   3.86526467
_cell_length_b   3.86527706
_cell_length_c   16.45775827
_cell_angle_alpha   90.00000000
_cell_angle_beta   90.00000000
_cell_angle_gamma   119.99989393
_symmetry_Int_Tables_number   1
_chemical_formula_structural   Ca(GaP)2
_chemical_formula_sum   'Ca2 Ga4 P4'
_cell_volume   212.94215337
_cell_formula_units_Z   2
loop_
 _symmetry_equiv_pos_site_id
 _symmetry_equiv_pos_as_xyz
  1  'x, y, z'
loop_
 _atom_site_type_symbol
 _atom_site_label
 _atom_site_symmetry_multiplicity
 _atom_site_fract_x
 _atom_site_fract_y
 _atom_site_fract_z
 _atom_site_occupancy
  Ca  Ca0  1  0.00000000  0.00000000  0.00000000  1
  Ca  Ca1  1  0.00000000  0.00000000  0.50000005  1
  Ga  Ga2  1  0.66666864  0.33333662  0.17514053  1
  Ga  Ga3  1  0.33333061  0.66666048  0.67514058  1
  Ga  Ga4  1  0.33333061  0.66666048  0.82485957  1
  Ga  Ga5  1  0.66666864  0.33333662  0.32485952  1
  P  P6  1  0.66666187  0.33332309  0.61378938  1
  P  P7  1  0.33333737  0.66667401  0.11378933  1
  P  P8  1  0.33333737  0.66667401  0.38621072  1
  P  P9  1  0.66666187  0.33332309  0.88621077  1
