# generated using pymatgen
data_BeMoPd
_symmetry_space_group_name_H-M   'P 1'
_cell_length_a   5.49127236
_cell_length_b   5.49127236
_cell_length_c   5.49127236
_cell_angle_alpha   151.15069826
_cell_angle_beta   151.15069826
_cell_angle_gamma   41.25488105
_symmetry_Int_Tables_number   1
_chemical_formula_structural   BeMoPd
_chemical_formula_sum   'Be1 Mo1 Pd1'
_cell_volume   38.46578504
_cell_formula_units_Z   1
loop_
 _symmetry_equiv_pos_site_id
 _symmetry_equiv_pos_as_xyz
  1  'x, y, z'
loop_
 _atom_site_type_symbol
 _atom_site_label
 _atom_site_symmetry_multiplicity
 _atom_site_fract_x
 _atom_site_fract_y
 _atom_site_fract_z
 _atom_site_occupancy
  Be  Be0  1  0.00946542  0.00946542  0.00000000  1
  Mo  Mo1  1  0.34661134  0.34661134  0.00000000  1
  Pd  Pd2  1  0.64392286  0.64392286  0.00000000  1
