# generated using pymatgen
data_BH6N
_symmetry_space_group_name_H-M   'P 1'
_cell_length_a   4.59968705
_cell_length_b   4.59968705
_cell_length_c   6.32064984
_cell_angle_alpha   90.00000000
_cell_angle_beta   90.00000000
_cell_angle_gamma   96.80219345
_symmetry_Int_Tables_number   1
_chemical_formula_structural   BH6N
_chemical_formula_sum   'B2 H12 N2'
_cell_volume   132.78544703
_cell_formula_units_Z   2
loop_
 _symmetry_equiv_pos_site_id
 _symmetry_equiv_pos_as_xyz
  1  'x, y, z'
loop_
 _atom_site_type_symbol
 _atom_site_label
 _atom_site_symmetry_multiplicity
 _atom_site_fract_x
 _atom_site_fract_y
 _atom_site_fract_z
 _atom_site_occupancy
  B  B0  1  0.85102681  0.14897419  0.28774117  1
  B  B1  1  0.14897419  0.85102681  0.78774118  1
  H  H2  1  0.81918380  0.18081719  0.94212422  1
  H  H3  1  0.18081719  0.81918380  0.44212420  1
  H  H4  1  0.50534468  0.22312716  0.05715150  1
  H  H5  1  0.49465631  0.77687384  0.55715152  1
  H  H6  1  0.22312716  0.50534468  0.55715152  1
  H  H7  1  0.77687384  0.49465631  0.05715150  1
  H  H8  1  0.73787520  0.26212580  0.43652410  1
  H  H9  1  0.26212580  0.73787520  0.93652411  1
  H  H10  1  0.78760013  0.88266694  0.28731209  1
  H  H11  1  0.21240087  0.11733405  0.78731210  1
  H  H12  1  0.88266694  0.78760013  0.78731210  1
  H  H13  1  0.11733405  0.21240087  0.28731209  1
  N  N14  1  0.72836435  0.27163665  0.07158339  1
  N  N15  1  0.27163665  0.72836435  0.57158341  1
