# generated using pymatgen
data_MnBe2Te
_symmetry_space_group_name_H-M   'P 1'
_cell_length_a   3.36417752
_cell_length_b   3.36417752
_cell_length_c   4.97575656
_cell_angle_alpha   90.00000000
_cell_angle_beta   90.00000000
_cell_angle_gamma   90.00000000
_symmetry_Int_Tables_number   1
_chemical_formula_structural   MnBe2Te
_chemical_formula_sum   'Mn1 Be2 Te1'
_cell_volume   56.31407202
_cell_formula_units_Z   1
loop_
 _symmetry_equiv_pos_site_id
 _symmetry_equiv_pos_as_xyz
  1  'x, y, z'
loop_
 _atom_site_type_symbol
 _atom_site_label
 _atom_site_symmetry_multiplicity
 _atom_site_fract_x
 _atom_site_fract_y
 _atom_site_fract_z
 _atom_site_occupancy
  Mn  Mn0  1  0.00000000  0.00000000  0.48148109  1
  Be  Be1  1  0.00000000  0.00000000  0.03626259  1
  Be  Be2  1  0.50000037  0.50000037  0.23985776  1
  Te  Te3  1  0.50000037  0.50000037  0.74239960  1
