# generated using pymatgen
data_Be2HgIr
_symmetry_space_group_name_H-M   'P 1'
_cell_length_a   4.95595456
_cell_length_b   4.95595456
_cell_length_c   4.95595456
_cell_angle_alpha   138.73987449
_cell_angle_beta   138.73987449
_cell_angle_gamma   59.77171507
_symmetry_Int_Tables_number   1
_chemical_formula_structural   Be2HgIr
_chemical_formula_sum   'Be2 Hg1 Ir1'
_cell_volume   52.40550988
_cell_formula_units_Z   1
loop_
 _symmetry_equiv_pos_site_id
 _symmetry_equiv_pos_as_xyz
  1  'x, y, z'
loop_
 _atom_site_type_symbol
 _atom_site_label
 _atom_site_symmetry_multiplicity
 _atom_site_fract_x
 _atom_site_fract_y
 _atom_site_fract_z
 _atom_site_occupancy
  Be  Be0  1  0.00000000  0.00000000  0.00000000  1
  Be  Be1  1  0.24999997  0.75000138  0.50000141  1
  Hg  Hg2  1  0.49999993  0.49999993  0.00000000  1
  Ir  Ir3  1  0.75000138  0.24999997  0.50000141  1
