# generated using pymatgen
data_SmSiPd2
_symmetry_space_group_name_H-M   'P 1'
_cell_length_a   5.60610496
_cell_length_b   6.94945101
_cell_length_c   7.47447328
_cell_angle_alpha   90.00000000
_cell_angle_beta   90.00000000
_cell_angle_gamma   90.00000000
_symmetry_Int_Tables_number   1
_chemical_formula_structural   SmSiPd2
_chemical_formula_sum   'Sm4 Si4 Pd8'
_cell_volume   291.20063398
_cell_formula_units_Z   4
loop_
 _symmetry_equiv_pos_site_id
 _symmetry_equiv_pos_as_xyz
  1  'x, y, z'
loop_
 _atom_site_type_symbol
 _atom_site_label
 _atom_site_symmetry_multiplicity
 _atom_site_fract_x
 _atom_site_fract_y
 _atom_site_fract_z
 _atom_site_occupancy
  Sm  Sm0  1  0.64285082  0.74999989  0.03048173  1
  Sm  Sm1  1  0.14285127  0.24999996  0.46951805  1
  Sm  Sm2  1  0.35714829  0.24999996  0.96951783  1
  Sm  Sm3  1  0.85714785  0.74999989  0.53048151  1
  Si  Si4  1  0.35353515  0.74999989  0.37761094  1
  Si  Si5  1  0.85353471  0.24999996  0.12238884  1
  Si  Si6  1  0.64646396  0.24999996  0.62238862  1
  Si  Si7  1  0.14646440  0.74999989  0.87761072  1
  Pd  Pd8  1  0.09270872  0.94848317  0.17710392  1
  Pd  Pd9  1  0.59270828  0.05151668  0.32289586  1
  Pd  Pd10  1  0.90729039  0.44848324  0.82289564  1
  Pd  Pd11  1  0.40729083  0.55151661  0.67710370  1
  Pd  Pd12  1  0.90729039  0.05151668  0.82289564  1
  Pd  Pd13  1  0.40729083  0.94848317  0.67710370  1
  Pd  Pd14  1  0.09270872  0.55151661  0.17710392  1
  Pd  Pd15  1  0.59270828  0.44848324  0.32289586  1
