# generated using pymatgen
data_RbBe2F5
_symmetry_space_group_name_H-M   'P 1'
_cell_length_a   4.57335965
_cell_length_b   6.68529057
_cell_length_c   4.66869151
_cell_angle_alpha   106.52252672
_cell_angle_beta   120.03223241
_cell_angle_gamma   70.99926424
_symmetry_Int_Tables_number   1
_chemical_formula_structural   RbBe2F5
_chemical_formula_sum   'Rb1 Be2 F5'
_cell_volume   115.55147785
_cell_formula_units_Z   1
loop_
 _symmetry_equiv_pos_site_id
 _symmetry_equiv_pos_as_xyz
  1  'x, y, z'
loop_
 _atom_site_type_symbol
 _atom_site_label
 _atom_site_symmetry_multiplicity
 _atom_site_fract_x
 _atom_site_fract_y
 _atom_site_fract_z
 _atom_site_occupancy
  Rb  Rb0  1  -0.17146348  0.98906746  0.84467908  1
  Be  Be1  1  0.92137054  0.38863691  0.54733532  1
  Be  Be2  1  0.73593197  0.58961644  0.14150527  1
  F  F3  1  0.10584339  0.15864825  0.55012333  1
  F  F4  1  0.07924049  0.55157247  0.49779837  1
  F  F5  1  0.82855742  0.48939938  0.84434248  1
  F  F6  1  0.57824164  0.42646859  0.19085542  1
  F  F7  1  0.55127284  0.81959058  0.13935539  1
