# generated using pymatgen
data_HoGa2Ni
_symmetry_space_group_name_H-M   'P 1'
_cell_length_a   5.39440175
_cell_length_b   5.39440175
_cell_length_c   6.60378120
_cell_angle_alpha   90.00000000
_cell_angle_beta   90.00000000
_cell_angle_gamma   135.02876015
_symmetry_Int_Tables_number   1
_chemical_formula_structural   HoGa2Ni
_chemical_formula_sum   'Ho2 Ga4 Ni2'
_cell_volume   135.81450201
_cell_formula_units_Z   2
loop_
 _symmetry_equiv_pos_site_id
 _symmetry_equiv_pos_as_xyz
  1  'x, y, z'
loop_
 _atom_site_type_symbol
 _atom_site_label
 _atom_site_symmetry_multiplicity
 _atom_site_fract_x
 _atom_site_fract_y
 _atom_site_fract_z
 _atom_site_occupancy
  Ho  Ho0  1  0.42582649  0.57417483  0.74999986  1
  Ho  Ho1  1  0.57417483  0.42582649  0.24999995  1
  Ga  Ga2  1  0.14086519  0.85913613  0.94691380  1
  Ga  Ga3  1  0.85913613  0.14086519  0.44691389  1
  Ga  Ga4  1  0.14086519  0.85913613  0.55308593  1
  Ga  Ga5  1  0.85913613  0.14086519  0.05308602  1
  Ni  Ni6  1  0.70862061  0.29138071  0.74999986  1
  Ni  Ni7  1  0.29138071  0.70862061  0.24999995  1
