# generated using pymatgen
data_MgBe2Br
_symmetry_space_group_name_H-M   'P 1'
_cell_length_a   5.70354835
_cell_length_b   5.70354835
_cell_length_c   5.70354835
_cell_angle_alpha   141.84142194
_cell_angle_beta   141.84142194
_cell_angle_gamma   55.06774226
_symmetry_Int_Tables_number   1
_chemical_formula_structural   MgBe2Br
_chemical_formula_sum   'Mg1 Be2 Br1'
_cell_volume   70.31652916
_cell_formula_units_Z   1
loop_
 _symmetry_equiv_pos_site_id
 _symmetry_equiv_pos_as_xyz
  1  'x, y, z'
loop_
 _atom_site_type_symbol
 _atom_site_label
 _atom_site_symmetry_multiplicity
 _atom_site_fract_x
 _atom_site_fract_y
 _atom_site_fract_z
 _atom_site_occupancy
  Mg  Mg0  1  0.74999864  0.24999993  0.49999871  1
  Be  Be1  1  0.00000000  0.00000000  0.00000000  1
  Be  Be2  1  0.24999993  0.74999864  0.49999871  1
  Br  Br3  1  0.49999986  0.49999986  0.00000000  1
