# generated using pymatgen
data_SmAgAs2
_symmetry_space_group_name_H-M   'P 1'
_cell_length_a   4.04216149
_cell_length_b   4.05070606
_cell_length_c   21.03654880
_cell_angle_alpha   90.00000000
_cell_angle_beta   90.00007131
_cell_angle_gamma   90.00000000
_symmetry_Int_Tables_number   1
_chemical_formula_structural   SmAgAs2
_chemical_formula_sum   'Sm4 Ag4 As8'
_cell_volume   344.44420429
_cell_formula_units_Z   4
loop_
 _symmetry_equiv_pos_site_id
 _symmetry_equiv_pos_as_xyz
  1  'x, y, z'
loop_
 _atom_site_type_symbol
 _atom_site_label
 _atom_site_symmetry_multiplicity
 _atom_site_fract_x
 _atom_site_fract_y
 _atom_site_fract_z
 _atom_site_occupancy
  Sm  Sm0  1  0.24999853  0.73223812  0.11483400  1
  Sm  Sm1  1  0.75000117  0.23223764  0.38516617  1
  Sm  Sm2  1  0.75000123  0.26776285  0.88516620  1
  Sm  Sm3  1  0.24999860  0.76776334  0.61483403  1
  Ag  Ag4  1  0.25000033  0.23059704  0.24997083  1
  Ag  Ag5  1  0.74999936  0.73059752  0.25002935  1
  Ag  Ag6  1  0.74999943  0.76940394  0.75002937  1
  Ag  Ag7  1  0.25000040  0.26940345  0.74997085  1
  As  As8  1  0.25000087  0.21171769  0.00113896  1
  As  As9  1  0.74999882  0.71171818  0.49886121  1
  As  As10  1  0.74999889  0.78828328  0.99886124  1
  As  As11  1  0.25000094  0.28828280  0.50113899  1
  As  As12  1  0.25000071  0.73175387  0.34191171  1
  As  As13  1  0.74999899  0.23175339  0.15808846  1
  As  As14  1  0.74999906  0.26824710  0.65808849  1
  As  As15  1  0.25000077  0.76824758  0.84191174  1
