# generated using pymatgen
data_LaGePd2
_symmetry_space_group_name_H-M   'P 1'
_cell_length_a   5.86094029
_cell_length_b   7.02667874
_cell_length_c   7.81540793
_cell_angle_alpha   90.00000000
_cell_angle_beta   90.00000000
_cell_angle_gamma   90.00000000
_symmetry_Int_Tables_number   1
_chemical_formula_structural   LaGePd2
_chemical_formula_sum   'La4 Ge4 Pd8'
_cell_volume   321.86151123
_cell_formula_units_Z   4
loop_
 _symmetry_equiv_pos_site_id
 _symmetry_equiv_pos_as_xyz
  1  'x, y, z'
loop_
 _atom_site_type_symbol
 _atom_site_label
 _atom_site_symmetry_multiplicity
 _atom_site_fract_x
 _atom_site_fract_y
 _atom_site_fract_z
 _atom_site_occupancy
  La  La0  1  0.65376012  0.75000013  0.03475385  1
  La  La1  1  0.15376014  0.25000004  0.46524628  1
  La  La2  1  0.34623983  0.25000004  0.96524641  1
  La  La3  1  0.84623981  0.75000013  0.53475399  1
  Ge  Ge4  1  0.34390745  0.75000013  0.37838131  1
  Ge  Ge5  1  0.84390742  0.25000004  0.12161883  1
  Ge  Ge6  1  0.65609250  0.25000004  0.62161896  1
  Ge  Ge7  1  0.15609253  0.75000013  0.87838144  1
  Pd  Pd8  1  0.08788333  0.94913569  0.17805683  1
  Pd  Pd9  1  0.58788331  0.05086449  0.32194330  1
  Pd  Pd10  1  0.91211662  0.44913560  0.82194344  1
  Pd  Pd11  1  0.41211664  0.55086458  0.67805696  1
  Pd  Pd12  1  0.91211662  0.05086449  0.82194344  1
  Pd  Pd13  1  0.41211664  0.94913569  0.67805696  1
  Pd  Pd14  1  0.08788333  0.55086458  0.17805683  1
  Pd  Pd15  1  0.58788331  0.44913560  0.32194330  1
