# generated using pymatgen
data_FeCoP
_symmetry_space_group_name_H-M   'P 1'
_cell_length_a   3.52960216
_cell_length_b   5.67120622
_cell_length_c   6.53112146
_cell_angle_alpha   90.00000000
_cell_angle_beta   90.00000000
_cell_angle_gamma   90.00000000
_symmetry_Int_Tables_number   1
_chemical_formula_structural   FeCoP
_chemical_formula_sum   'Fe4 Co4 P4'
_cell_volume   130.73412252
_cell_formula_units_Z   4
loop_
 _symmetry_equiv_pos_site_id
 _symmetry_equiv_pos_as_xyz
  1  'x, y, z'
loop_
 _atom_site_type_symbol
 _atom_site_label
 _atom_site_symmetry_multiplicity
 _atom_site_fract_x
 _atom_site_fract_y
 _atom_site_fract_z
 _atom_site_occupancy
  Fe  Fe0  1  0.24999985  0.03101533  0.16320693  1
  Fe  Fe1  1  0.74999954  0.46898500  0.66320682  1
  Fe  Fe2  1  0.74999954  0.96898534  0.83679285  1
  Fe  Fe3  1  0.24999985  0.53101567  0.33679296  1
  Co  Co4  1  0.24999985  0.14012552  0.56728882  1
  Co  Co5  1  0.74999954  0.35987481  0.06728893  1
  Co  Co6  1  0.74999954  0.85987515  0.43271095  1
  Co  Co7  1  0.24999985  0.64012585  0.93271084  1
  P  P8  1  0.24999985  0.75482611  0.61907527  1
  P  P9  1  0.74999954  0.74517489  0.11907538  1
  P  P10  1  0.74999954  0.24517456  0.38092451  1
  P  P11  1  0.24999985  0.25482578  0.88092440  1
