# generated using pymatgen
data_BeTeW
_symmetry_space_group_name_H-M   'P 1'
_cell_length_a   4.81319706
_cell_length_b   4.81319706
_cell_length_c   4.81319706
_cell_angle_alpha   139.31553927
_cell_angle_beta   139.31553927
_cell_angle_gamma   58.89404445
_symmetry_Int_Tables_number   1
_chemical_formula_structural   BeTeW
_chemical_formula_sum   'Be1 Te1 W1'
_cell_volume   46.93655782
_cell_formula_units_Z   1
loop_
 _symmetry_equiv_pos_site_id
 _symmetry_equiv_pos_as_xyz
  1  'x, y, z'
loop_
 _atom_site_type_symbol
 _atom_site_label
 _atom_site_symmetry_multiplicity
 _atom_site_fract_x
 _atom_site_fract_y
 _atom_site_fract_z
 _atom_site_occupancy
  Be  Be0  1  0.01471951  0.01471951  0.00000000  1
  Te  Te1  1  0.32988498  0.32988498  0.00000000  1
  W  W2  1  0.65539475  0.65539475  0.00000000  1
