# generated using pymatgen
data_InS
_symmetry_space_group_name_H-M   'P 1'
_cell_length_a   4.48412170
_cell_length_b   10.83557624
_cell_length_c   6.01222561
_cell_angle_alpha   90.00000000
_cell_angle_beta   138.21004063
_cell_angle_gamma   90.00000000
_symmetry_Int_Tables_number   1
_chemical_formula_structural   InS
_chemical_formula_sum   'In4 S4'
_cell_volume   194.67081505
_cell_formula_units_Z   4
loop_
 _symmetry_equiv_pos_site_id
 _symmetry_equiv_pos_as_xyz
  1  'x, y, z'
loop_
 _atom_site_type_symbol
 _atom_site_label
 _atom_site_symmetry_multiplicity
 _atom_site_fract_x
 _atom_site_fract_y
 _atom_site_fract_z
 _atom_site_occupancy
  In  In0  1  0.11863686  0.12010219  -0.00022359  1
  In  In1  1  0.88136325  0.62010236  0.50022261  1
  In  In2  1  0.88136336  0.87989816  0.00022284  1
  In  In3  1  0.11863675  0.37989799  0.49977618  1
  S  S4  1  -0.01721896  0.34864242  -0.00036199  1
  S  S5  1  0.01721885  0.84864260  0.50036176  1
  S  S6  1  0.01721896  0.65135792  0.00036199  1
  S  S7  1  -0.01721907  0.15135775  0.49963778  1
