# generated using pymatgen
data_BeNiCl
_symmetry_space_group_name_H-M   'P 1'
_cell_length_a   5.40435796
_cell_length_b   5.40435796
_cell_length_c   5.40435796
_cell_angle_alpha   148.96656985
_cell_angle_beta   148.96656985
_cell_angle_gamma   44.46051595
_symmetry_Int_Tables_number   1
_chemical_formula_structural   BeNiCl
_chemical_formula_sum   'Be1 Ni1 Cl1'
_cell_volume   41.82729507
_cell_formula_units_Z   1
loop_
 _symmetry_equiv_pos_site_id
 _symmetry_equiv_pos_as_xyz
  1  'x, y, z'
loop_
 _atom_site_type_symbol
 _atom_site_label
 _atom_site_symmetry_multiplicity
 _atom_site_fract_x
 _atom_site_fract_y
 _atom_site_fract_z
 _atom_site_occupancy
  Be  Be0  1  0.01348412  0.01348412  0.00000000  1
  Ni  Ni1  1  0.61411718  0.61411718  0.00000000  1
  Cl  Cl2  1  0.37240031  0.37240031  0.00000000  1
