# generated using pymatgen
data_Sr2BeP
_symmetry_space_group_name_H-M   'P 1'
_cell_length_a   6.31510344
_cell_length_b   6.31510344
_cell_length_c   6.31510344
_cell_angle_alpha   139.45574880
_cell_angle_beta   139.45574880
_cell_angle_gamma   58.68060632
_symmetry_Int_Tables_number   1
_chemical_formula_structural   Sr2BeP
_chemical_formula_sum   'Sr2 Be1 P1'
_cell_volume   105.42302185
_cell_formula_units_Z   1
loop_
 _symmetry_equiv_pos_site_id
 _symmetry_equiv_pos_as_xyz
  1  'x, y, z'
loop_
 _atom_site_type_symbol
 _atom_site_label
 _atom_site_symmetry_multiplicity
 _atom_site_fract_x
 _atom_site_fract_y
 _atom_site_fract_z
 _atom_site_occupancy
  Sr  Sr0  1  0.00000000  0.00000000  0.00000000  1
  Sr  Sr1  1  0.24999989  0.74999925  0.49999936  1
  Be  Be2  1  0.49999978  0.49999978  0.00000000  1
  P  P3  1  0.74999925  0.24999989  0.49999936  1
