# generated using pymatgen
data_Mn2BeHg
_symmetry_space_group_name_H-M   'P 1'
_cell_length_a   2.81711298
_cell_length_b   2.81711298
_cell_length_c   6.37173499
_cell_angle_alpha   90.00000000
_cell_angle_beta   90.00000000
_cell_angle_gamma   90.00000000
_symmetry_Int_Tables_number   1
_chemical_formula_structural   Mn2BeHg
_chemical_formula_sum   'Mn2 Be1 Hg1'
_cell_volume   50.56688889
_cell_formula_units_Z   1
loop_
 _symmetry_equiv_pos_site_id
 _symmetry_equiv_pos_as_xyz
  1  'x, y, z'
loop_
 _atom_site_type_symbol
 _atom_site_label
 _atom_site_symmetry_multiplicity
 _atom_site_fract_x
 _atom_site_fract_y
 _atom_site_fract_z
 _atom_site_occupancy
  Mn  Mn0  1  0.00000000  0.00000000  0.06422349  1
  Mn  Mn1  1  0.49999947  0.49999947  0.25471182  1
  Be  Be2  1  0.00000000  0.00000000  0.44680927  1
  Hg  Hg3  1  0.49999947  0.49999947  0.73425425  1
