# generated using pymatgen
data_ZrBeSi2
_symmetry_space_group_name_H-M   'P 1'
_cell_length_a   4.98521447
_cell_length_b   4.98521447
_cell_length_c   4.98521447
_cell_angle_alpha   136.15394353
_cell_angle_beta   136.15394353
_cell_angle_gamma   63.74242573
_symmetry_Int_Tables_number   1
_chemical_formula_structural   ZrBeSi2
_chemical_formula_sum   'Zr1 Be1 Si2'
_cell_volume   58.66750381
_cell_formula_units_Z   1
loop_
 _symmetry_equiv_pos_site_id
 _symmetry_equiv_pos_as_xyz
  1  'x, y, z'
loop_
 _atom_site_type_symbol
 _atom_site_label
 _atom_site_symmetry_multiplicity
 _atom_site_fract_x
 _atom_site_fract_y
 _atom_site_fract_z
 _atom_site_occupancy
  Zr  Zr0  1  0.25000006  0.74999925  0.49999919  1
  Be  Be1  1  0.74999925  0.25000006  0.49999919  1
  Si  Si2  1  0.00000000  0.00000000  0.00000000  1
  Si  Si3  1  0.50000012  0.50000012  0.00000000  1
