# generated using pymatgen
data_Th2Fe17
_symmetry_space_group_name_H-M   'P 1'
_cell_length_a   6.26729537
_cell_length_b   6.26729537
_cell_length_c   6.26729537
_cell_angle_alpha   82.90585054
_cell_angle_beta   82.90585054
_cell_angle_gamma   82.90585054
_symmetry_Int_Tables_number   1
_chemical_formula_structural   Th2Fe17
_chemical_formula_sum   'Th2 Fe17'
_cell_volume   240.94926989
_cell_formula_units_Z   1
loop_
 _symmetry_equiv_pos_site_id
 _symmetry_equiv_pos_as_xyz
  1  'x, y, z'
loop_
 _atom_site_type_symbol
 _atom_site_label
 _atom_site_symmetry_multiplicity
 _atom_site_fract_x
 _atom_site_fract_y
 _atom_site_fract_z
 _atom_site_occupancy
  Th  Th0  1  0.34453830  0.34453830  0.34453929  1
  Th  Th1  1  0.65546093  0.65546093  0.65546282  1
  Fe  Fe2  1  0.09507307  0.09507307  0.09507335  1
  Fe  Fe3  1  0.90492615  0.90492615  0.90492876  1
  Fe  Fe4  1  0.14886340  0.65800684  0.65800805  1
  Fe  Fe5  1  0.65800646  0.65800646  0.14886483  1
  Fe  Fe6  1  0.65800684  0.14886340  0.65800805  1
  Fe  Fe7  1  0.85113583  0.34199238  0.34199406  1
  Fe  Fe8  1  0.34199238  0.85113583  0.34199406  1
  Fe  Fe9  1  0.00000002  0.00000002  0.50000040  1
  Fe  Fe10  1  0.27633229  -0.00000016  0.72366848  1
  Fe  Fe11  1  0.72366743  0.27633174  0.00000065  1
  Fe  Fe12  1  -0.00000016  0.27633229  0.72366848  1
  Fe  Fe13  1  0.72366764  -0.00000049  0.27633298  1
  Fe  Fe14  1  0.27633174  0.72366743  0.00000065  1
  Fe  Fe15  1  0.49999994  -0.00000035  0.00000033  1
  Fe  Fe16  1  -0.00000035  0.49999994  0.00000033  1
  Fe  Fe17  1  -0.00000049  0.72366764  0.27633298  1
  Fe  Fe18  1  0.34199276  0.34199276  0.85113728  1
