# generated using pymatgen
data_BeHgSb
_symmetry_space_group_name_H-M   'P 1'
_cell_length_a   4.16717251
_cell_length_b   4.16717251
_cell_length_c   4.73568932
_cell_angle_alpha   90.00000000
_cell_angle_beta   90.00000000
_cell_angle_gamma   119.99999723
_symmetry_Int_Tables_number   1
_chemical_formula_structural   BeHgSb
_chemical_formula_sum   'Be1 Hg1 Sb1'
_cell_volume   71.21915316
_cell_formula_units_Z   1
loop_
 _symmetry_equiv_pos_site_id
 _symmetry_equiv_pos_as_xyz
  1  'x, y, z'
loop_
 _atom_site_type_symbol
 _atom_site_label
 _atom_site_symmetry_multiplicity
 _atom_site_fract_x
 _atom_site_fract_y
 _atom_site_fract_z
 _atom_site_occupancy
  Be  Be0  1  0.00000000  -0.00000000  0.83361343  1
  Hg  Hg1  1  0.66666801  0.33333375  0.33321312  1
  Sb  Sb2  1  0.33333375  0.66666801  0.83317374  1
