# generated using pymatgen
data_K4SrBe
_symmetry_space_group_name_H-M   'P 1'
_cell_length_a   7.76209054
_cell_length_b   7.76209054
_cell_length_c   7.76209054
_cell_angle_alpha   60.00000000
_cell_angle_beta   60.00000000
_cell_angle_gamma   60.00000000
_symmetry_Int_Tables_number   1
_chemical_formula_structural   K4SrBe
_chemical_formula_sum   'K4 Sr1 Be1'
_cell_volume   330.69003964
_cell_formula_units_Z   1
loop_
 _symmetry_equiv_pos_site_id
 _symmetry_equiv_pos_as_xyz
  1  'x, y, z'
loop_
 _atom_site_type_symbol
 _atom_site_label
 _atom_site_symmetry_multiplicity
 _atom_site_fract_x
 _atom_site_fract_y
 _atom_site_fract_z
 _atom_site_occupancy
  K  K0  1  0.12214931  0.62595094  0.62595094  1
  K  K1  1  0.62595094  0.62595094  0.62595094  1
  K  K2  1  0.62595094  0.12214931  0.62595094  1
  K  K3  1  0.62595094  0.62595094  0.12214931  1
  Sr  Sr4  1  0.25000014  0.25000014  0.25000014  1
  Be  Be5  1  0.00000000  0.00000000  0.00000000  1
