# generated using pymatgen
data_LaBr3
_symmetry_space_group_name_H-M   'P 1'
_cell_length_a   7.98198800
_cell_length_b   7.98178829
_cell_length_c   4.52381685
_cell_angle_alpha   90.00000000
_cell_angle_beta   90.00000000
_cell_angle_gamma   120.00157756
_symmetry_Int_Tables_number   1
_chemical_formula_structural   LaBr3
_chemical_formula_sum   'La2 Br6'
_cell_volume   249.59737658
_cell_formula_units_Z   2
loop_
 _symmetry_equiv_pos_site_id
 _symmetry_equiv_pos_as_xyz
  1  'x, y, z'
loop_
 _atom_site_type_symbol
 _atom_site_label
 _atom_site_symmetry_multiplicity
 _atom_site_fract_x
 _atom_site_fract_y
 _atom_site_fract_z
 _atom_site_occupancy
  La  La0  1  0.66666512  0.33332890  0.25000017  1
  La  La1  1  0.33333540  0.66667113  0.75000052  1
  Br  Br2  1  0.29700788  0.91422407  0.25000017  1
  Br  Br3  1  0.08575830  0.38274608  0.25000017  1
  Br  Br4  1  0.61722971  0.70300787  0.25000017  1
  Br  Br5  1  0.70299263  0.08577596  0.75000052  1
  Br  Br6  1  0.91424222  0.61725395  0.75000052  1
  Br  Br7  1  0.38277081  0.29699216  0.75000052  1
