# generated using pymatgen
data_Sr2FeMoO6
_symmetry_space_group_name_H-M   'P 1'
_cell_length_a   5.48520856
_cell_length_b   5.48520856
_cell_length_c   5.48520856
_cell_angle_alpha   120.00498982
_cell_angle_beta   120.00498982
_cell_angle_gamma   89.99135759
_symmetry_Int_Tables_number   1
_chemical_formula_structural   Sr2FeMoO6
_chemical_formula_sum   'Sr2 Fe1 Mo1 O6'
_cell_volume   116.68947232
_cell_formula_units_Z   1
loop_
 _symmetry_equiv_pos_site_id
 _symmetry_equiv_pos_as_xyz
  1  'x, y, z'
loop_
 _atom_site_type_symbol
 _atom_site_label
 _atom_site_symmetry_multiplicity
 _atom_site_fract_x
 _atom_site_fract_y
 _atom_site_fract_z
 _atom_site_occupancy
  Sr  Sr0  1  0.75000043  0.24999996  0.50000047  1
  Sr  Sr1  1  0.24999995  0.75000043  0.50000046  1
  Fe  Fe2  1  0.00000000  0.00000000  0.00000000  1
  Mo  Mo3  1  0.49999991  0.49999991  0.00000000  1
  O  O4  1  0.24947368  0.24947368  -0.00000000  1
  O  O5  1  0.75052614  0.75052614  0.00000000  1
  O  O6  1  0.75111928  0.74994769  0.50106714  1
  O  O7  1  0.24888110  0.25005270  0.49893380  1
  O  O8  1  0.74994824  0.24888111  0.99882935  1
  O  O9  1  0.25005214  0.75111928  0.00117159  1
