# generated using pymatgen
data_AlAu2
_symmetry_space_group_name_H-M   'P 1'
_cell_length_a   3.31832089
_cell_length_b   6.88156881
_cell_length_c   8.95366481
_cell_angle_alpha   90.00000000
_cell_angle_beta   90.00000000
_cell_angle_gamma   90.00000000
_symmetry_Int_Tables_number   1
_chemical_formula_structural   AlAu2
_chemical_formula_sum   'Al4 Au8'
_cell_volume   204.45920577
_cell_formula_units_Z   4
loop_
 _symmetry_equiv_pos_site_id
 _symmetry_equiv_pos_as_xyz
  1  'x, y, z'
loop_
 _atom_site_type_symbol
 _atom_site_label
 _atom_site_symmetry_multiplicity
 _atom_site_fract_x
 _atom_site_fract_y
 _atom_site_fract_z
 _atom_site_occupancy
  Al  Al0  1  0.24999993  0.14050835  0.22431603  1
  Al  Al1  1  0.74999980  0.35949174  0.72431576  1
  Al  Al2  1  0.74999980  0.85949182  0.77568344  1
  Al  Al3  1  0.24999993  0.64050844  0.27568370  1
  Au  Au4  1  0.24999993  0.65016818  0.57091007  1
  Au  Au5  1  0.74999980  0.84983208  0.07091034  1
  Au  Au6  1  0.74999980  0.34983199  0.42908939  1
  Au  Au7  1  0.24999993  0.15016809  0.92908912  1
  Au  Au8  1  0.24999993  0.07835413  0.61970101  1
  Au  Au9  1  0.74999980  0.42164596  0.11970128  1
  Au  Au10  1  0.74999980  0.92164604  0.38029846  1
  Au  Au11  1  0.24999993  0.57835422  0.88029819  1
