# generated using pymatgen
data_K2Co(SeO3)2
_symmetry_space_group_name_H-M   'P 1'
_cell_length_a   6.92725358
_cell_length_b   6.92725358
_cell_length_c   6.92725358
_cell_angle_alpha   47.26376507
_cell_angle_beta   47.26376507
_cell_angle_gamma   47.26376507
_symmetry_Int_Tables_number   1
_chemical_formula_structural   K2Co(SeO3)2
_chemical_formula_sum   'K2 Co1 Se2 O6'
_cell_volume   164.02081956
_cell_formula_units_Z   1
loop_
 _symmetry_equiv_pos_site_id
 _symmetry_equiv_pos_as_xyz
  1  'x, y, z'
loop_
 _atom_site_type_symbol
 _atom_site_label
 _atom_site_symmetry_multiplicity
 _atom_site_fract_x
 _atom_site_fract_y
 _atom_site_fract_z
 _atom_site_occupancy
  K  K0  1  0.19388112  0.19388112  0.19388081  1
  K  K1  1  0.80612010  0.80612010  0.80611882  1
  Co  Co2  1  0.00000000  0.00000000  0.00000000  1
  Se  Se3  1  0.63186633  0.63186633  0.63186532  1
  Se  Se4  1  0.36813489  0.36813489  0.36813431  1
  O  O5  1  0.75557523  0.26479438  0.75557411  1
  O  O6  1  0.75557512  0.75557512  0.26479368  1
  O  O7  1  0.26479438  0.75557523  0.75557411  1
  O  O8  1  0.24442599  0.73520684  0.24442552  1
  O  O9  1  0.73520684  0.24442599  0.24442552  1
  O  O10  1  0.24442611  0.24442611  0.73520595  1
