# generated using pymatgen
data_UNiSe3
_symmetry_space_group_name_H-M   'P 1'
_cell_length_a   6.23152799
_cell_length_b   7.45635383
_cell_length_c   8.91495727
_cell_angle_alpha   90.00000000
_cell_angle_beta   90.00000000
_cell_angle_gamma   90.00000000
_symmetry_Int_Tables_number   1
_chemical_formula_structural   UNiSe3
_chemical_formula_sum   'U4 Ni4 Se12'
_cell_volume   414.22883238
_cell_formula_units_Z   4
loop_
 _symmetry_equiv_pos_site_id
 _symmetry_equiv_pos_as_xyz
  1  'x, y, z'
loop_
 _atom_site_type_symbol
 _atom_site_label
 _atom_site_symmetry_multiplicity
 _atom_site_fract_x
 _atom_site_fract_y
 _atom_site_fract_z
 _atom_site_occupancy
  U  U0  1  0.56943478  0.86613334  0.75000023  1
  U  U1  1  0.43056555  0.13386615  0.25000008  1
  U  U2  1  0.93056571  0.36613359  0.75000023  1
  U  U3  1  0.06943462  0.63386589  0.25000008  1
  Ni  Ni4  1  0.00000000  0.00000000  0.00000000  1
  Ni  Ni5  1  0.50000016  0.49999974  0.50000015  1
  Ni  Ni6  1  0.00000000  0.00000000  0.50000015  1
  Ni  Ni7  1  0.50000016  0.49999974  0.00000000  1
  Se  Se8  1  0.64803195  0.46559790  0.25000008  1
  Se  Se9  1  0.85196853  0.96559765  0.25000008  1
  Se  Se10  1  0.35196837  0.53440158  0.75000023  1
  Se  Se11  1  0.16430879  0.33263842  0.44842088  1
  Se  Se12  1  0.83569153  0.66736106  0.94842104  1
  Se  Se13  1  0.33569137  0.83263817  0.05157927  1
  Se  Se14  1  0.83569153  0.66736106  0.55157942  1
  Se  Se15  1  0.33569137  0.83263817  0.44842088  1
  Se  Se16  1  0.16430879  0.33263842  0.05157927  1
  Se  Se17  1  0.66430895  0.16736132  0.94842104  1
  Se  Se18  1  0.14803179  0.03440184  0.75000023  1
  Se  Se19  1  0.66430895  0.16736132  0.55157942  1
