# generated using pymatgen
data_Be2FeCl
_symmetry_space_group_name_H-M   'P 1'
_cell_length_a   5.63782961
_cell_length_b   5.63782961
_cell_length_c   5.63782961
_cell_angle_alpha   147.65763164
_cell_angle_beta   147.65763164
_cell_angle_gamma   46.39102815
_symmetry_Int_Tables_number   1
_chemical_formula_structural   Be2FeCl
_chemical_formula_sum   'Be2 Fe1 Cl1'
_cell_volume   51.10525471
_cell_formula_units_Z   1
loop_
 _symmetry_equiv_pos_site_id
 _symmetry_equiv_pos_as_xyz
  1  'x, y, z'
loop_
 _atom_site_type_symbol
 _atom_site_label
 _atom_site_symmetry_multiplicity
 _atom_site_fract_x
 _atom_site_fract_y
 _atom_site_fract_z
 _atom_site_occupancy
  Be  Be0  1  0.00000000  0.00000000  0.00000000  1
  Be  Be1  1  0.24999989  0.74999949  0.49999960  1
  Fe  Fe2  1  0.74999949  0.24999989  0.49999960  1
  Cl  Cl3  1  0.49999978  0.49999978  0.00000000  1
