# generated using pymatgen
data_NaBeGe
_symmetry_space_group_name_H-M   'P 1'
_cell_length_a   5.71370920
_cell_length_b   5.71370920
_cell_length_c   5.71370920
_cell_angle_alpha   146.25664131
_cell_angle_beta   146.25664131
_cell_angle_gamma   48.46572155
_symmetry_Int_Tables_number   1
_chemical_formula_structural   NaBeGe
_chemical_formula_sum   'Na1 Be1 Ge1'
_cell_volume   57.31082416
_cell_formula_units_Z   1
loop_
 _symmetry_equiv_pos_site_id
 _symmetry_equiv_pos_as_xyz
  1  'x, y, z'
loop_
 _atom_site_type_symbol
 _atom_site_label
 _atom_site_symmetry_multiplicity
 _atom_site_fract_x
 _atom_site_fract_y
 _atom_site_fract_z
 _atom_site_occupancy
  Na  Na0  1  0.66946858  0.66946858  0.00000000  1
  Be  Be1  1  0.94565963  0.94565963  0.00000000  1
  Ge  Ge2  1  0.38486990  0.38486990  0.00000000  1
