# generated using pymatgen
data_NdInCu
_symmetry_space_group_name_H-M   'P 1'
_cell_length_a   7.52748491
_cell_length_b   7.52748491
_cell_length_c   4.13556891
_cell_angle_alpha   90.00000000
_cell_angle_beta   90.00000000
_cell_angle_gamma   120.00173284
_symmetry_Int_Tables_number   1
_chemical_formula_structural   NdInCu
_chemical_formula_sum   'Nd3 In3 Cu3'
_cell_volume   202.93553293
_cell_formula_units_Z   3
loop_
 _symmetry_equiv_pos_site_id
 _symmetry_equiv_pos_as_xyz
  1  'x, y, z'
loop_
 _atom_site_type_symbol
 _atom_site_label
 _atom_site_symmetry_multiplicity
 _atom_site_fract_x
 _atom_site_fract_y
 _atom_site_fract_z
 _atom_site_occupancy
  Nd  Nd0  1  0.58765733  0.99999886  0.50000013  1
  Nd  Nd1  1  0.99999886  0.58765733  0.50000013  1
  Nd  Nd2  1  0.41234180  0.41234180  0.50000013  1
  In  In3  1  0.24854693  -0.00000017  0.00000000  1
  In  In4  1  -0.00000017  0.24854693  0.00000000  1
  In  In5  1  0.75145406  0.75145406  0.00000000  1
  Cu  Cu6  1  -0.00000102  -0.00000102  0.50000013  1
  Cu  Cu7  1  0.33333331  0.66666477  0.00000000  1
  Cu  Cu8  1  0.66666477  0.33333331  0.00000000  1
