# generated using pymatgen
data_GePt3
_symmetry_space_group_name_H-M   'P 1'
_cell_length_a   5.64680373
_cell_length_b   5.64680373
_cell_length_c   5.64680373
_cell_angle_alpha   120.59268686
_cell_angle_beta   120.59268686
_cell_angle_gamma   88.97646557
_symmetry_Int_Tables_number   1
_chemical_formula_structural   GePt3
_chemical_formula_sum   'Ge2 Pt6'
_cell_volume   126.15654751
_cell_formula_units_Z   2
loop_
 _symmetry_equiv_pos_site_id
 _symmetry_equiv_pos_as_xyz
  1  'x, y, z'
loop_
 _atom_site_type_symbol
 _atom_site_label
 _atom_site_symmetry_multiplicity
 _atom_site_fract_x
 _atom_site_fract_y
 _atom_site_fract_z
 _atom_site_occupancy
  Ge  Ge0  1  0.25000012  0.74999996  0.49999984  1
  Ge  Ge1  1  0.74999996  0.25000012  0.49999984  1
  Pt  Pt2  1  0.75000036  0.75000036  0.00000000  1
  Pt  Pt3  1  0.25000012  0.25000012  0.00000000  1
  Pt  Pt4  1  0.30607667  0.19392317  0.49999984  1
  Pt  Pt5  1  0.69392341  0.80607691  0.49999984  1
  Pt  Pt6  1  0.80607691  0.30607707  0.11215351  1
  Pt  Pt7  1  0.19392317  0.69392301  0.88784618  1
