# generated using pymatgen
data_Be2TlW
_symmetry_space_group_name_H-M   'P 1'
_cell_length_a   2.77099301
_cell_length_b   2.77099301
_cell_length_c   8.79420435
_cell_angle_alpha   90.00000000
_cell_angle_beta   90.00000000
_cell_angle_gamma   90.00000000
_symmetry_Int_Tables_number   1
_chemical_formula_structural   Be2TlW
_chemical_formula_sum   'Be2 Tl1 W1'
_cell_volume   67.52543879
_cell_formula_units_Z   1
loop_
 _symmetry_equiv_pos_site_id
 _symmetry_equiv_pos_as_xyz
  1  'x, y, z'
loop_
 _atom_site_type_symbol
 _atom_site_label
 _atom_site_symmetry_multiplicity
 _atom_site_fract_x
 _atom_site_fract_y
 _atom_site_fract_z
 _atom_site_occupancy
  Be  Be0  1  0.00000000  0.00000000  0.01857328  1
  Be  Be1  1  0.49999946  0.49999946  0.12830115  1
  Tl  Tl2  1  0.00000000  0.00000000  0.52542526  1
  W  W3  1  0.49999946  0.49999946  0.82769856  1
