# generated using pymatgen
data_ZnCu2GeS4
_symmetry_space_group_name_H-M   'P 1'
_cell_length_a   6.23594735
_cell_length_b   6.54433814
_cell_length_c   7.48786704
_cell_angle_alpha   90.00000000
_cell_angle_beta   90.00000000
_cell_angle_gamma   90.00000000
_symmetry_Int_Tables_number   1
_chemical_formula_structural   ZnCu2GeS4
_chemical_formula_sum   'Zn2 Cu4 Ge2 S8'
_cell_volume   305.58096240
_cell_formula_units_Z   2
loop_
 _symmetry_equiv_pos_site_id
 _symmetry_equiv_pos_as_xyz
  1  'x, y, z'
loop_
 _atom_site_type_symbol
 _atom_site_label
 _atom_site_symmetry_multiplicity
 _atom_site_fract_x
 _atom_site_fract_y
 _atom_site_fract_z
 _atom_site_occupancy
  Zn  Zn0  1  0.50048157  0.84355253  0.00000000  1
  Zn  Zn1  1  0.00048136  0.15644775  0.50000020  1
  Cu  Cu2  1  0.99258088  0.67035940  0.24925014  1
  Cu  Cu3  1  0.49258067  0.32964089  0.25075006  1
  Cu  Cu4  1  0.49258067  0.32964089  0.74925034  1
  Cu  Cu5  1  0.99258088  0.67035940  0.75075026  1
  Ge  Ge6  1  0.00052852  0.16665121  0.00000000  1
  Ge  Ge7  1  0.50052874  0.83334908  0.50000020  1
  S  S8  1  0.63437011  0.17818568  0.00000000  1
  S  S9  1  0.13436989  0.82181461  0.50000020  1
  S  S10  1  0.12107495  0.83910664  0.00000000  1
  S  S11  1  0.62107516  0.16089364  0.50000020  1
  S  S12  1  0.62469250  0.66115383  0.25519360  1
  S  S13  1  0.12469228  0.33884645  0.24480659  1
  S  S14  1  0.12469228  0.33884645  0.75519380  1
  S  S15  1  0.62469250  0.66115383  0.74480679  1
