# generated using pymatgen
data_BaSi6
_symmetry_space_group_name_H-M   'P 1'
_cell_length_a   5.71120574
_cell_length_b   5.71120574
_cell_length_c   12.10052088
_cell_angle_alpha   90.00000000
_cell_angle_beta   90.00000000
_cell_angle_gamma   133.35140369
_symmetry_Int_Tables_number   1
_chemical_formula_structural   BaSi6
_chemical_formula_sum   'Ba2 Si12'
_cell_volume   287.00401251
_cell_formula_units_Z   2
loop_
 _symmetry_equiv_pos_site_id
 _symmetry_equiv_pos_as_xyz
  1  'x, y, z'
loop_
 _atom_site_type_symbol
 _atom_site_label
 _atom_site_symmetry_multiplicity
 _atom_site_fract_x
 _atom_site_fract_y
 _atom_site_fract_z
 _atom_site_occupancy
  Ba  Ba0  1  0.27500128  0.72500047  0.74999995  1
  Ba  Ba1  1  0.72500047  0.27500128  0.24999998  1
  Si  Si2  1  0.24716665  0.75283510  0.46231444  1
  Si  Si3  1  0.75283510  0.24716665  0.96231440  1
  Si  Si4  1  0.24716665  0.75283510  0.03768553  1
  Si  Si5  1  0.75283510  0.24716665  0.53768549  1
  Si  Si6  1  0.55952452  0.44047724  0.64745753  1
  Si  Si7  1  0.44047724  0.55952452  0.14745757  1
  Si  Si8  1  0.55952452  0.44047724  0.85254236  1
  Si  Si9  1  0.44047724  0.55952452  0.35254240  1
  Si  Si10  1  0.02326336  0.97673839  0.40242802  1
  Si  Si11  1  0.97673839  0.02326336  0.90242798  1
  Si  Si12  1  0.02326336  0.97673839  0.09757195  1
  Si  Si13  1  0.97673839  0.02326336  0.59757191  1
