# generated using pymatgen
data_Fe5C2
_symmetry_space_group_name_H-M   'P 1'
_cell_length_a   6.10246444
_cell_length_b   6.10246444
_cell_length_c   4.90570662
_cell_angle_alpha   82.85816044
_cell_angle_beta   82.85816044
_cell_angle_gamma   42.59735875
_symmetry_Int_Tables_number   1
_chemical_formula_structural   Fe5C2
_chemical_formula_sum   'Fe10 C4'
_cell_volume   122.54567575
_cell_formula_units_Z   2
loop_
 _symmetry_equiv_pos_site_id
 _symmetry_equiv_pos_as_xyz
  1  'x, y, z'
loop_
 _atom_site_type_symbol
 _atom_site_label
 _atom_site_symmetry_multiplicity
 _atom_site_fract_x
 _atom_site_fract_y
 _atom_site_fract_z
 _atom_site_occupancy
  Fe  Fe0  1  0.19335425  0.00566237  0.58204846  1
  Fe  Fe1  1  0.99433646  0.80664459  0.91795053  1
  Fe  Fe2  1  0.80664470  0.99433657  0.41795074  1
  Fe  Fe3  1  0.00566249  0.19335436  0.08204867  1
  Fe  Fe4  1  0.79855567  0.63114927  0.69734615  1
  Fe  Fe5  1  0.36884956  0.20144317  0.80265284  1
  Fe  Fe6  1  0.20144328  0.36884968  0.30265305  1
  Fe  Fe7  1  0.63114938  0.79855578  0.19734636  1
  Fe  Fe8  1  0.57027354  0.42972530  0.74999949  1
  Fe  Fe9  1  0.42972541  0.57027365  0.24999970  1
  C  C10  1  0.41486684  0.80776719  0.92268610  1
  C  C11  1  0.19223165  0.58513200  0.57731288  1
  C  C12  1  0.58513211  0.19223176  0.07731309  1
  C  C13  1  0.80776730  0.41486695  0.42268631  1
