# generated using pymatgen
data_Be2SeCl
_symmetry_space_group_name_H-M   'P 1'
_cell_length_a   3.39685192
_cell_length_b   3.39685192
_cell_length_c   5.68504117
_cell_angle_alpha   90.00000000
_cell_angle_beta   90.00000000
_cell_angle_gamma   90.00000000
_symmetry_Int_Tables_number   1
_chemical_formula_structural   Be2SeCl
_chemical_formula_sum   'Be2 Se1 Cl1'
_cell_volume   65.59743279
_cell_formula_units_Z   1
loop_
 _symmetry_equiv_pos_site_id
 _symmetry_equiv_pos_as_xyz
  1  'x, y, z'
loop_
 _atom_site_type_symbol
 _atom_site_label
 _atom_site_symmetry_multiplicity
 _atom_site_fract_x
 _atom_site_fract_y
 _atom_site_fract_z
 _atom_site_occupancy
  Be  Be0  1  0.00000000  0.00000000  0.95710328  1
  Be  Be1  1  0.49999972  0.49999972  0.28179430  1
  Se  Se2  1  0.49999972  0.49999972  0.89867310  1
  Cl  Cl3  1  0.00000000  0.00000000  0.36242781  1
