# generated using pymatgen
data_BeNb2Fe
_symmetry_space_group_name_H-M   'P 1'
_cell_length_a   2.87683424
_cell_length_b   2.87683424
_cell_length_c   6.71446465
_cell_angle_alpha   90.00000000
_cell_angle_beta   90.00000000
_cell_angle_gamma   90.00000000
_symmetry_Int_Tables_number   1
_chemical_formula_structural   BeNb2Fe
_chemical_formula_sum   'Be1 Nb2 Fe1'
_cell_volume   55.57008609
_cell_formula_units_Z   1
loop_
 _symmetry_equiv_pos_site_id
 _symmetry_equiv_pos_as_xyz
  1  'x, y, z'
loop_
 _atom_site_type_symbol
 _atom_site_label
 _atom_site_symmetry_multiplicity
 _atom_site_fract_x
 _atom_site_fract_y
 _atom_site_fract_z
 _atom_site_occupancy
  Be  Be0  1  0.00000000  0.00000000  0.55363201  1
  Nb  Nb1  1  0.00000000  0.00000000  0.94718004  1
  Nb  Nb2  1  0.49999926  0.49999926  0.29309573  1
  Fe  Fe3  1  0.49999926  0.49999926  0.70609049  1
