# generated using pymatgen
data_Be2GaCl
_symmetry_space_group_name_H-M   'P 1'
_cell_length_a   7.00447937
_cell_length_b   7.00447937
_cell_length_c   7.00447937
_cell_angle_alpha   153.64066668
_cell_angle_beta   153.64066668
_cell_angle_gamma   37.62209965
_symmetry_Int_Tables_number   1
_chemical_formula_structural   Be2GaCl
_chemical_formula_sum   'Be2 Ga1 Cl1'
_cell_volume   67.64539235
_cell_formula_units_Z   1
loop_
 _symmetry_equiv_pos_site_id
 _symmetry_equiv_pos_as_xyz
  1  'x, y, z'
loop_
 _atom_site_type_symbol
 _atom_site_label
 _atom_site_symmetry_multiplicity
 _atom_site_fract_x
 _atom_site_fract_y
 _atom_site_fract_z
 _atom_site_occupancy
  Be  Be0  1  0.00000000  0.00000000  0.00000000  1
  Be  Be1  1  0.25000001  0.75000040  0.50000039  1
  Ga  Ga2  1  0.75000040  0.25000001  0.50000039  1
  Cl  Cl3  1  0.50000002  0.50000002  0.00000000  1
