# generated using pymatgen
data_MnNiGe
_symmetry_space_group_name_H-M   'P 1'
_cell_length_a   3.65761385
_cell_length_b   5.98026069
_cell_length_c   7.08249033
_cell_angle_alpha   90.00000000
_cell_angle_beta   90.00000000
_cell_angle_gamma   90.00000000
_symmetry_Int_Tables_number   1
_chemical_formula_structural   MnNiGe
_chemical_formula_sum   'Mn4 Ni4 Ge4'
_cell_volume   154.91874125
_cell_formula_units_Z   4
loop_
 _symmetry_equiv_pos_site_id
 _symmetry_equiv_pos_as_xyz
  1  'x, y, z'
loop_
 _atom_site_type_symbol
 _atom_site_label
 _atom_site_symmetry_multiplicity
 _atom_site_fract_x
 _atom_site_fract_y
 _atom_site_fract_z
 _atom_site_occupancy
  Mn  Mn0  1  0.24999974  0.03532721  0.82160538  1
  Mn  Mn1  1  0.74999921  0.46467273  0.32160541  1
  Mn  Mn2  1  0.74999921  0.96467268  0.17839457  1
  Mn  Mn3  1  0.24999974  0.53532715  0.67839455  1
  Ni  Ni4  1  0.24999974  0.14173503  0.44083268  1
  Ni  Ni5  1  0.74999921  0.35826491  0.94083266  1
  Ni  Ni6  1  0.74999921  0.85826486  0.55916727  1
  Ni  Ni7  1  0.24999974  0.64173497  0.05916730  1
  Ge  Ge8  1  0.24999974  0.75067857  0.37336834  1
  Ge  Ge9  1  0.74999921  0.74932126  0.87336832  1
  Ge  Ge10  1  0.74999921  0.24932132  0.62663161  1
  Ge  Ge11  1  0.24999974  0.25067862  0.12663163  1
