# generated using pymatgen
data_Rb3Sn4Au
_symmetry_space_group_name_H-M   'P 1'
_cell_length_a   6.69214189
_cell_length_b   7.13313458
_cell_length_c   13.01302298
_cell_angle_alpha   90.00000000
_cell_angle_beta   90.00000000
_cell_angle_gamma   90.00000000
_symmetry_Int_Tables_number   1
_chemical_formula_structural   Rb3Sn4Au
_chemical_formula_sum   'Rb6 Sn8 Au2'
_cell_volume   621.18899834
_cell_formula_units_Z   2
loop_
 _symmetry_equiv_pos_site_id
 _symmetry_equiv_pos_as_xyz
  1  'x, y, z'
loop_
 _atom_site_type_symbol
 _atom_site_label
 _atom_site_symmetry_multiplicity
 _atom_site_fract_x
 _atom_site_fract_y
 _atom_site_fract_z
 _atom_site_occupancy
  Rb  Rb0  1  0.17213900  0.74999952  0.00647866  1
  Rb  Rb1  1  0.17213900  0.74999952  0.49352122  1
  Rb  Rb2  1  0.82786071  0.24999984  0.50647855  1
  Rb  Rb3  1  0.82786071  0.24999984  0.99352111  1
  Rb  Rb4  1  0.44310059  0.24999984  0.74999983  1
  Rb  Rb5  1  0.55689913  0.74999952  0.24999994  1
  Sn  Sn6  1  0.96138803  0.52755049  0.74999983  1
  Sn  Sn7  1  0.96138803  0.97244854  0.74999983  1
  Sn  Sn8  1  0.03861169  0.47244887  0.24999994  1
  Sn  Sn9  1  0.03861169  0.02755081  0.24999994  1
  Sn  Sn10  1  0.33090775  0.24999984  0.37148784  1
  Sn  Sn11  1  0.33090775  0.24999984  0.12851204  1
  Sn  Sn12  1  0.66909197  0.74999952  0.87148773  1
  Sn  Sn13  1  0.66909197  0.74999952  0.62851193  1
  Au  Au14  1  0.68381555  0.24999984  0.24999994  1
  Au  Au15  1  0.31618417  0.74999952  0.74999983  1
