# generated using pymatgen
data_Ce2Au
_symmetry_space_group_name_H-M   'P 1'
_cell_length_a   4.46870700
_cell_length_b   6.67729315
_cell_length_c   10.29875668
_cell_angle_alpha   90.00000000
_cell_angle_beta   90.00000000
_cell_angle_gamma   90.00000000
_symmetry_Int_Tables_number   1
_chemical_formula_structural   Ce2Au
_chemical_formula_sum   'Ce8 Au4'
_cell_volume   307.30322715
_cell_formula_units_Z   4
loop_
 _symmetry_equiv_pos_site_id
 _symmetry_equiv_pos_as_xyz
  1  'x, y, z'
loop_
 _atom_site_type_symbol
 _atom_site_label
 _atom_site_symmetry_multiplicity
 _atom_site_fract_x
 _atom_site_fract_y
 _atom_site_fract_z
 _atom_site_occupancy
  Ce  Ce0  1  0.25000017  0.80721869  0.91510405  1
  Ce  Ce1  1  0.75000050  0.69278060  0.41510389  1
  Ce  Ce2  1  0.75000050  0.19278084  0.08489627  1
  Ce  Ce3  1  0.25000017  0.30721893  0.58489643  1
  Ce  Ce4  1  0.25000017  0.42392143  0.18482176  1
  Ce  Ce5  1  0.75000050  0.07607833  0.68482193  1
  Ce  Ce6  1  0.75000050  0.57607810  0.81517856  1
  Ce  Ce7  1  0.25000017  0.92392119  0.31517840  1
  Au  Au8  1  0.25000017  0.27369284  0.88664669  1
  Au  Au9  1  0.75000050  0.22630692  0.38664652  1
  Au  Au10  1  0.75000050  0.72630669  0.11335364  1
  Au  Au11  1  0.25000017  0.77369260  0.61335380  1
