# generated using pymatgen
data_Ta3VS6
_symmetry_space_group_name_H-M   'P 1'
_cell_length_a   5.77762587
_cell_length_b   5.77762446
_cell_length_c   12.22846773
_cell_angle_alpha   90.00000000
_cell_angle_beta   90.00000000
_cell_angle_gamma   120.00000806
_symmetry_Int_Tables_number   1
_chemical_formula_structural   Ta3VS6
_chemical_formula_sum   'Ta6 V2 S12'
_cell_volume   353.50972328
_cell_formula_units_Z   2
loop_
 _symmetry_equiv_pos_site_id
 _symmetry_equiv_pos_as_xyz
  1  'x, y, z'
loop_
 _atom_site_type_symbol
 _atom_site_label
 _atom_site_symmetry_multiplicity
 _atom_site_fract_x
 _atom_site_fract_y
 _atom_site_fract_z
 _atom_site_occupancy
  Ta  Ta0  1  0.66666566  0.33333319  0.99808886  1
  Ta  Ta1  1  0.33333349  0.66666611  0.49808877  1
  Ta  Ta2  1  0.33333220  0.66666611  0.00191132  1
  Ta  Ta3  1  0.66666695  0.33333319  0.50191142  1
  Ta  Ta4  1  0.00000062  -0.00000000  0.50000009  1
  Ta  Ta5  1  0.99999879  -0.00000043  0.00000000  1
  V  V6  1  0.33333283  0.66666608  0.75000014  1
  V  V7  1  0.66666632  0.33333323  0.25000005  1
  S  S8  1  0.33243591  0.00063411  0.37054227  1
  S  S9  1  0.99936543  0.33180064  0.37054214  1
  S  S10  1  0.99936399  0.66756340  0.12945787  1
  S  S11  1  0.00063371  0.66819867  0.87054223  1
  S  S12  1  0.33180046  0.33243576  0.87054231  1
  S  S13  1  0.33180140  0.99936535  0.62945792  1
  S  S14  1  0.66756438  0.66819838  0.62945805  1
  S  S15  1  0.00063516  0.33243590  0.62945797  1
  S  S16  1  0.66819775  0.00063396  0.12945782  1
  S  S17  1  0.33243477  0.33180093  0.12945795  1
  S  S18  1  0.66756323  0.99936520  0.87054236  1
  S  S19  1  0.66819869  0.66756355  0.37054222  1
