# generated using pymatgen
data_Nd(Mo3S4)2
_symmetry_space_group_name_H-M   'P 1'
_cell_length_a   6.53356091
_cell_length_b   6.53356091
_cell_length_c   6.53356091
_cell_angle_alpha   88.80754198
_cell_angle_beta   88.80754198
_cell_angle_gamma   88.80754198
_symmetry_Int_Tables_number   1
_chemical_formula_structural   Nd(Mo3S4)2
_chemical_formula_sum   'Nd1 Mo6 S8'
_cell_volume   278.72211951
_cell_formula_units_Z   1
loop_
 _symmetry_equiv_pos_site_id
 _symmetry_equiv_pos_as_xyz
  1  'x, y, z'
loop_
 _atom_site_type_symbol
 _atom_site_label
 _atom_site_symmetry_multiplicity
 _atom_site_fract_x
 _atom_site_fract_y
 _atom_site_fract_z
 _atom_site_occupancy
  Nd  Nd0  1  0.00000000  0.00000000  0.00000000  1
  Mo  Mo1  1  0.42018619  0.22675527  0.56247631  1
  Mo  Mo2  1  0.56247604  0.42018621  0.22675575  1
  Mo  Mo3  1  0.22675528  0.56247603  0.42018656  1
  Mo  Mo4  1  0.57981435  0.77324527  0.43752514  1
  Mo  Mo5  1  0.43752449  0.57981433  0.77324571  1
  Mo  Mo6  1  0.77324526  0.43752451  0.57981489  1
  S  S7  1  0.24247450  0.24247450  0.24247473  1
  S  S8  1  0.75752603  0.75752603  0.75752673  1
  S  S9  1  0.37387517  0.75215603  0.12545433  1
  S  S10  1  0.12545376  0.37387513  0.75215621  1
  S  S11  1  0.75215602  0.12545379  0.37387555  1
  S  S12  1  0.62612537  0.24784451  0.87454713  1
  S  S13  1  0.87454678  0.62612541  0.24784525  1
  S  S14  1  0.24784452  0.87454675  0.62612590  1
