# generated using pymatgen
data_La2Co3
_symmetry_space_group_name_H-M   'P 1'
_cell_length_a   5.68113378
_cell_length_b   5.68113378
_cell_length_c   7.63149738
_cell_angle_alpha   90.00000000
_cell_angle_beta   90.00000000
_cell_angle_gamma   129.85280188
_symmetry_Int_Tables_number   1
_chemical_formula_structural   La2Co3
_chemical_formula_sum   'La4 Co6'
_cell_volume   189.08955454
_cell_formula_units_Z   2
loop_
 _symmetry_equiv_pos_site_id
 _symmetry_equiv_pos_as_xyz
  1  'x, y, z'
loop_
 _atom_site_type_symbol
 _atom_site_label
 _atom_site_symmetry_multiplicity
 _atom_site_fract_x
 _atom_site_fract_y
 _atom_site_fract_z
 _atom_site_occupancy
  La  La0  1  0.15072313  0.84927569  0.58897327  1
  La  La1  1  0.34927544  0.65072338  0.08897310  1
  La  La2  1  0.65072338  0.34927544  0.91102724  1
  La  La3  1  0.84927569  0.15072313  0.41102707  1
  Co  Co4  1  0.00000000  0.00000000  0.00000000  1
  Co  Co5  1  0.49999941  0.49999941  0.50000017  1
  Co  Co6  1  0.65835647  0.84164176  0.75000026  1
  Co  Co7  1  0.84164176  0.65835647  0.25000009  1
  Co  Co8  1  0.34164235  0.15835706  0.25000009  1
  Co  Co9  1  0.15835706  0.34164235  0.75000026  1
