# generated using pymatgen
data_UCl3
_symmetry_space_group_name_H-M   'P 1'
_cell_length_a   7.41515092
_cell_length_b   7.41611015
_cell_length_c   4.24890711
_cell_angle_alpha   90.00000000
_cell_angle_beta   90.00000000
_cell_angle_gamma   119.99588017
_symmetry_Int_Tables_number   1
_chemical_formula_structural   UCl3
_chemical_formula_sum   'U2 Cl6'
_cell_volume   202.35878450
_cell_formula_units_Z   2
loop_
 _symmetry_equiv_pos_site_id
 _symmetry_equiv_pos_as_xyz
  1  'x, y, z'
loop_
 _atom_site_type_symbol
 _atom_site_label
 _atom_site_symmetry_multiplicity
 _atom_site_fract_x
 _atom_site_fract_y
 _atom_site_fract_z
 _atom_site_occupancy
  U  U0  1  0.33333626  0.66670054  0.25000017  1
  U  U1  1  0.66666506  0.33330020  0.75000051  1
  Cl  Cl2  1  0.38376351  0.29881866  0.25000017  1
  Cl  Cl3  1  0.70121164  0.08493964  0.25000017  1
  Cl  Cl4  1  0.91502710  0.61620334  0.25000017  1
  Cl  Cl5  1  0.61623781  0.70118208  0.75000051  1
  Cl  Cl6  1  0.29878968  0.91506110  0.75000051  1
  Cl  Cl7  1  0.08497422  0.38379741  0.75000051  1
