# generated using pymatgen
data_LaGe2
_symmetry_space_group_name_H-M   'P 1'
_cell_length_a   8.46764145
_cell_length_b   8.46764145
_cell_length_c   8.46764145
_cell_angle_alpha   150.56358520
_cell_angle_beta   150.56358520
_cell_angle_gamma   42.11474570
_symmetry_Int_Tables_number   1
_chemical_formula_structural   LaGe2
_chemical_formula_sum   'La2 Ge4'
_cell_volume   146.29270301
_cell_formula_units_Z   2
loop_
 _symmetry_equiv_pos_site_id
 _symmetry_equiv_pos_as_xyz
  1  'x, y, z'
loop_
 _atom_site_type_symbol
 _atom_site_label
 _atom_site_symmetry_multiplicity
 _atom_site_fract_x
 _atom_site_fract_y
 _atom_site_fract_z
 _atom_site_occupancy
  La  La0  1  0.00000000  0.00000000  0.00000000  1
  La  La1  1  0.74999903  0.24999994  0.49999908  1
  Ge  Ge2  1  0.41846030  0.41846030  0.00000000  1
  Ge  Ge3  1  0.16846036  0.66845944  0.49999908  1
  Ge  Ge4  1  0.33153953  0.83153861  0.49999908  1
  Ge  Ge5  1  0.58153948  0.58153948  0.00000000  1
