# generated using pymatgen
data_BeCd2Co
_symmetry_space_group_name_H-M   'P 1'
_cell_length_a   4.37771820
_cell_length_b   4.37771820
_cell_length_c   4.37771820
_cell_angle_alpha   120.06038815
_cell_angle_beta   120.06038815
_cell_angle_gamma   89.89543644
_symmetry_Int_Tables_number   1
_chemical_formula_structural   BeCd2Co
_chemical_formula_sum   'Be1 Cd2 Co1'
_cell_volume   59.26946876
_cell_formula_units_Z   1
loop_
 _symmetry_equiv_pos_site_id
 _symmetry_equiv_pos_as_xyz
  1  'x, y, z'
loop_
 _atom_site_type_symbol
 _atom_site_label
 _atom_site_symmetry_multiplicity
 _atom_site_fract_x
 _atom_site_fract_y
 _atom_site_fract_z
 _atom_site_occupancy
  Be  Be0  1  0.75000000  0.25000020  0.49999980  1
  Cd  Cd1  1  0.00000000  0.00000000  0.00000000  1
  Cd  Cd2  1  0.50000039  0.50000039  0.00000000  1
  Co  Co3  1  0.25000020  0.75000000  0.49999980  1
