# generated using pymatgen
data_K2BeTe
_symmetry_space_group_name_H-M   'P 1'
_cell_length_a   6.35890421
_cell_length_b   6.35890421
_cell_length_c   6.35890421
_cell_angle_alpha   133.72182617
_cell_angle_beta   133.72182617
_cell_angle_gamma   67.52281390
_symmetry_Int_Tables_number   1
_chemical_formula_structural   K2BeTe
_chemical_formula_sum   'K2 Be1 Te1'
_cell_volume   132.03896877
_cell_formula_units_Z   1
loop_
 _symmetry_equiv_pos_site_id
 _symmetry_equiv_pos_as_xyz
  1  'x, y, z'
loop_
 _atom_site_type_symbol
 _atom_site_label
 _atom_site_symmetry_multiplicity
 _atom_site_fract_x
 _atom_site_fract_y
 _atom_site_fract_z
 _atom_site_occupancy
  K  K0  1  0.00000000  0.00000000  0.00000000  1
  K  K1  1  0.24999990  0.74999915  0.49999925  1
  Be  Be2  1  0.74999915  0.24999990  0.49999925  1
  Te  Te3  1  0.49999980  0.49999980  0.00000000  1
