# generated using pymatgen
data_Be2PPd
_symmetry_space_group_name_H-M   'P 1'
_cell_length_a   3.10536195
_cell_length_b   3.10536195
_cell_length_c   4.86780783
_cell_angle_alpha   90.00000000
_cell_angle_beta   90.00000000
_cell_angle_gamma   90.00000000
_symmetry_Int_Tables_number   1
_chemical_formula_structural   Be2PPd
_chemical_formula_sum   'Be2 P1 Pd1'
_cell_volume   46.94159897
_cell_formula_units_Z   1
loop_
 _symmetry_equiv_pos_site_id
 _symmetry_equiv_pos_as_xyz
  1  'x, y, z'
loop_
 _atom_site_type_symbol
 _atom_site_label
 _atom_site_symmetry_multiplicity
 _atom_site_fract_x
 _atom_site_fract_y
 _atom_site_fract_z
 _atom_site_occupancy
  Be  Be0  1  0.00000000  0.00000000  0.00466000  1
  Be  Be1  1  0.49999969  0.49999969  0.25533427  1
  P  P2  1  0.00000000  0.00000000  0.45778853  1
  Pd  Pd3  1  0.49999969  0.49999969  0.78221786  1
