# generated using pymatgen
data_Ba2PbO4
_symmetry_space_group_name_H-M   'P 1'
_cell_length_a   7.39166747
_cell_length_b   7.39166747
_cell_length_c   7.39166747
_cell_angle_alpha   145.69798187
_cell_angle_beta   145.69798187
_cell_angle_gamma   49.29557979
_symmetry_Int_Tables_number   1
_chemical_formula_structural   Ba2PbO4
_chemical_formula_sum   'Ba2 Pb1 O4'
_cell_volume   127.67954150
_cell_formula_units_Z   1
loop_
 _symmetry_equiv_pos_site_id
 _symmetry_equiv_pos_as_xyz
  1  'x, y, z'
loop_
 _atom_site_type_symbol
 _atom_site_label
 _atom_site_symmetry_multiplicity
 _atom_site_fract_x
 _atom_site_fract_y
 _atom_site_fract_z
 _atom_site_occupancy
  Ba  Ba0  1  0.64416186  0.64416186  0.00000000  1
  Ba  Ba1  1  0.35583783  0.35583783  0.00000000  1
  Pb  Pb2  1  0.00000000  0.00000000  0.00000000  1
  O  O3  1  0.50000065  0.00000000  0.50000065  1
  O  O4  1  0.00000000  0.50000065  0.50000065  1
  O  O5  1  0.16311175  0.16311175  0.00000000  1
  O  O6  1  0.83688793  0.83688793  0.00000000  1
