# generated using pymatgen
data_Ho3Ir
_symmetry_space_group_name_H-M   'P 1'
_cell_length_a   6.33699541
_cell_length_b   7.16938013
_cell_length_c   9.17955472
_cell_angle_alpha   90.00000000
_cell_angle_beta   90.00000000
_cell_angle_gamma   90.00000000
_symmetry_Int_Tables_number   1
_chemical_formula_structural   Ho3Ir
_chemical_formula_sum   'Ho12 Ir4'
_cell_volume   417.04854939
_cell_formula_units_Z   4
loop_
 _symmetry_equiv_pos_site_id
 _symmetry_equiv_pos_as_xyz
  1  'x, y, z'
loop_
 _atom_site_type_symbol
 _atom_site_label
 _atom_site_symmetry_multiplicity
 _atom_site_fract_x
 _atom_site_fract_y
 _atom_site_fract_z
 _atom_site_occupancy
  Ho  Ho0  1  0.82682612  0.17811124  0.93845390  1
  Ho  Ho1  1  0.32682576  0.32188875  0.06154558  1
  Ho  Ho2  1  0.17317460  0.82188874  0.43845416  1
  Ho  Ho3  1  0.67317497  0.67811123  0.56154533  1
  Ho  Ho4  1  0.17317460  0.82188874  0.06154558  1
  Ho  Ho5  1  0.67317497  0.67811123  0.93845390  1
  Ho  Ho6  1  0.82682612  0.17811124  0.56154533  1
  Ho  Ho7  1  0.32682576  0.32188875  0.43845416  1
  Ho  Ho8  1  0.37013932  0.03271799  0.74999961  1
  Ho  Ho9  1  0.87013968  0.46728200  0.24999987  1
  Ho  Ho10  1  0.62986141  0.96728199  0.24999987  1
  Ho  Ho11  1  0.12986105  0.53271798  0.74999961  1
  Ir  Ir12  1  0.54599493  0.38418255  0.74999961  1
  Ir  Ir13  1  0.04599456  0.11581745  0.24999987  1
  Ir  Ir14  1  0.45400580  0.61581744  0.24999987  1
  Ir  Ir15  1  0.95400616  0.88418254  0.74999961  1
