# generated using pymatgen
data_Ba3CaRu2O9
_symmetry_space_group_name_H-M   'P 1'
_cell_length_a   5.83084245
_cell_length_b   5.83084520
_cell_length_c   7.17783913
_cell_angle_alpha   89.99998472
_cell_angle_beta   89.99999909
_cell_angle_gamma   120.00000325
_symmetry_Int_Tables_number   1
_chemical_formula_structural   Ba3CaRu2O9
_chemical_formula_sum   'Ba3 Ca1 Ru2 O9'
_cell_volume   211.34265379
_cell_formula_units_Z   1
loop_
 _symmetry_equiv_pos_site_id
 _symmetry_equiv_pos_as_xyz
  1  'x, y, z'
loop_
 _atom_site_type_symbol
 _atom_site_label
 _atom_site_symmetry_multiplicity
 _atom_site_fract_x
 _atom_site_fract_y
 _atom_site_fract_z
 _atom_site_occupancy
  Ba  Ba0  1  0.00000000  0.00000000  0.00000000  1
  Ba  Ba1  1  0.66666645  0.33333280  0.66413349  1
  Ba  Ba2  1  0.33333299  0.66666623  0.33586651  1
  Ca  Ca3  1  -0.00000005  -0.00000010  0.50000006  1
  Ru  Ru4  1  0.66666653  0.33333287  0.15647350  1
  Ru  Ru5  1  0.33333291  0.66666616  0.84352649  1
  O  O6  1  -0.00000028  0.49999974  -0.00000006  1
  O  O7  1  0.49999978  0.49999962  -0.00000006  1
  O  O8  1  0.50000006  -0.00000013  -0.00000001  1
  O  O9  1  0.82098304  0.64196595  0.31309535  1
  O  O10  1  0.35803383  0.17901700  0.31309590  1
  O  O11  1  0.82098332  0.17901693  0.31309590  1
  O  O12  1  0.17901641  0.35803307  0.68690465  1
  O  O13  1  0.17901612  0.82098210  0.68690409  1
  O  O14  1  0.64196561  0.82098203  0.68690409  1
