# generated using pymatgen
data_TiFe2
_symmetry_space_group_name_H-M   'P 1'
_cell_length_a   4.66400117
_cell_length_b   4.66400117
_cell_length_c   7.69045937
_cell_angle_alpha   90.00000000
_cell_angle_beta   90.00000000
_cell_angle_gamma   119.99896394
_symmetry_Int_Tables_number   1
_chemical_formula_structural   TiFe2
_chemical_formula_sum   'Ti4 Fe8'
_cell_volume   144.87876971
_cell_formula_units_Z   4
loop_
 _symmetry_equiv_pos_site_id
 _symmetry_equiv_pos_as_xyz
  1  'x, y, z'
loop_
 _atom_site_type_symbol
 _atom_site_label
 _atom_site_symmetry_multiplicity
 _atom_site_fract_x
 _atom_site_fract_y
 _atom_site_fract_z
 _atom_site_occupancy
  Ti  Ti0  1  0.33332893  0.66667231  0.06610784  1
  Ti  Ti1  1  0.66667231  0.33332893  0.56610789  1
  Ti  Ti2  1  0.66667231  0.33332893  0.93389224  1
  Ti  Ti3  1  0.33332893  0.66667231  0.43389220  1
  Fe  Fe4  1  0.00000000  0.00000000  0.00000000  1
  Fe  Fe5  1  0.00000000  0.00000000  0.50000004  1
  Fe  Fe6  1  0.82811562  0.65629078  0.25000002  1
  Fe  Fe7  1  0.34371046  0.17188562  0.25000002  1
  Fe  Fe8  1  0.82810860  0.17189264  0.25000002  1
  Fe  Fe9  1  0.17188562  0.34371046  0.75000006  1
  Fe  Fe10  1  0.65629078  0.82811562  0.75000006  1
  Fe  Fe11  1  0.17189264  0.82810860  0.75000006  1
