# generated using pymatgen
data_AgSbTe2
_symmetry_space_group_name_H-M   'P 1'
_cell_length_a   8.65393930
_cell_length_b   8.65393930
_cell_length_c   8.65393930
_cell_angle_alpha   60.00000000
_cell_angle_beta   60.00000000
_cell_angle_gamma   60.00000000
_symmetry_Int_Tables_number   1
_chemical_formula_structural   AgSbTe2
_chemical_formula_sum   'Ag4 Sb4 Te8'
_cell_volume   458.27539013
_cell_formula_units_Z   4
loop_
 _symmetry_equiv_pos_site_id
 _symmetry_equiv_pos_as_xyz
  1  'x, y, z'
loop_
 _atom_site_type_symbol
 _atom_site_label
 _atom_site_symmetry_multiplicity
 _atom_site_fract_x
 _atom_site_fract_y
 _atom_site_fract_z
 _atom_site_occupancy
  Ag  Ag0  1  0.00000000  0.00000000  0.00000000  1
  Ag  Ag1  1  0.50000007  0.50000007  -0.00000000  1
  Ag  Ag2  1  0.50000007  0.00000000  0.50000007  1
  Ag  Ag3  1  0.50000007  0.00000000  -0.00000000  1
  Sb  Sb4  1  0.50000007  0.50000007  0.50000007  1
  Sb  Sb5  1  0.00000000  0.00000000  0.50000007  1
  Sb  Sb6  1  0.00000000  0.50000007  -0.00000000  1
  Sb  Sb7  1  0.00000000  0.50000007  0.50000007  1
  Te  Te8  1  0.25465896  0.75465902  0.23602327  1
  Te  Te9  1  0.74534118  0.24534111  0.76397687  1
  Te  Te10  1  0.74534118  0.24534111  0.24534111  1
  Te  Te11  1  0.25465896  0.75465902  0.75465902  1
  Te  Te12  1  0.74534118  0.76397687  0.24534111  1
  Te  Te13  1  0.25465896  0.23602327  0.75465902  1
  Te  Te14  1  0.73602334  0.75465902  0.75465902  1
  Te  Te15  1  0.26397680  0.24534111  0.24534111  1
