# generated using pymatgen
data_NaBeGa
_symmetry_space_group_name_H-M   'P 1'
_cell_length_a   5.84821868
_cell_length_b   5.84821868
_cell_length_c   5.84821868
_cell_angle_alpha   148.54429236
_cell_angle_beta   148.54429236
_cell_angle_gamma   45.08251912
_symmetry_Int_Tables_number   1
_chemical_formula_structural   NaBeGa
_chemical_formula_sum   'Na1 Be1 Ga1'
_cell_volume   54.29681022
_cell_formula_units_Z   1
loop_
 _symmetry_equiv_pos_site_id
 _symmetry_equiv_pos_as_xyz
  1  'x, y, z'
loop_
 _atom_site_type_symbol
 _atom_site_label
 _atom_site_symmetry_multiplicity
 _atom_site_fract_x
 _atom_site_fract_y
 _atom_site_fract_z
 _atom_site_occupancy
  Na  Na0  1  0.66526834  0.66526834  0.00000000  1
  Be  Be1  1  0.96062779  0.96062779  0.00000000  1
  Ga  Ga2  1  0.37410517  0.37410517  0.00000000  1
