# generated using pymatgen
data_Cr2NiO4
_symmetry_space_group_name_H-M   'P 1'
_cell_length_a   5.86785937
_cell_length_b   5.86785937
_cell_length_c   5.86785937
_cell_angle_alpha   119.99365906
_cell_angle_beta   119.99365906
_cell_angle_gamma   90.01098318
_symmetry_Int_Tables_number   1
_chemical_formula_structural   Cr2NiO4
_chemical_formula_sum   'Cr4 Ni2 O8'
_cell_volume   142.87811307
_cell_formula_units_Z   2
loop_
 _symmetry_equiv_pos_site_id
 _symmetry_equiv_pos_as_xyz
  1  'x, y, z'
loop_
 _atom_site_type_symbol
 _atom_site_label
 _atom_site_symmetry_multiplicity
 _atom_site_fract_x
 _atom_site_fract_y
 _atom_site_fract_z
 _atom_site_occupancy
  Cr  Cr0  1  0.37500041  0.62500034  0.24999993  1
  Cr  Cr1  1  0.37499971  0.12499979  0.74999978  1
  Cr  Cr2  1  0.87500061  0.62500069  0.24999993  1
  Cr  Cr3  1  0.37500006  0.62499999  0.74999978  1
  Ni  Ni4  1  0.00000000  0.00000000  0.00000000  1
  Ni  Ni5  1  0.75000013  0.25000027  0.49999985  1
  O  O6  1  0.61316403  0.83940365  0.22623962  1
  O  O7  1  0.61316333  0.38692372  0.77376009  1
  O  O8  1  0.13692414  0.86316361  0.27376024  1
  O  O9  1  0.58940337  0.86316361  0.72623947  1
  O  O10  1  0.13683679  0.86307626  0.72623947  1
  O  O11  1  0.13683679  0.41059703  0.27376024  1
  O  O12  1  0.61307668  0.38683707  0.22623962  1
  O  O13  1  0.16059675  0.38683637  0.77376009  1
