# generated using pymatgen
data_Na2BiAu
_symmetry_space_group_name_H-M   'P 1'
_cell_length_a   6.07109675
_cell_length_b   6.07109675
_cell_length_c   5.97154209
_cell_angle_alpha   90.00000000
_cell_angle_beta   90.00000000
_cell_angle_gamma   102.36951185
_symmetry_Int_Tables_number   1
_chemical_formula_structural   Na2BiAu
_chemical_formula_sum   'Na4 Bi2 Au2'
_cell_volume   214.99106570
_cell_formula_units_Z   2
loop_
 _symmetry_equiv_pos_site_id
 _symmetry_equiv_pos_as_xyz
  1  'x, y, z'
loop_
 _atom_site_type_symbol
 _atom_site_label
 _atom_site_symmetry_multiplicity
 _atom_site_fract_x
 _atom_site_fract_y
 _atom_site_fract_z
 _atom_site_occupancy
  Na  Na0  1  0.49648693  0.13688424  0.24999991  1
  Na  Na1  1  0.50351279  0.86311548  0.74999974  1
  Na  Na2  1  0.13688424  0.49648693  0.24999991  1
  Na  Na3  1  0.86311548  0.50351279  0.74999974  1
  Bi  Bi4  1  0.68597240  0.68597240  0.24999991  1
  Bi  Bi5  1  0.31402732  0.31402732  0.74999974  1
  Au  Au6  1  0.00000000  0.00000000  0.00000000  1
  Au  Au7  1  0.00000000  0.00000000  0.49999982  1
