# generated using pymatgen
data_Ca2MgBe
_symmetry_space_group_name_H-M   'P 1'
_cell_length_a   5.10949202
_cell_length_b   5.10949202
_cell_length_c   5.10949202
_cell_angle_alpha   120.03139282
_cell_angle_beta   120.03139282
_cell_angle_gamma   89.94563464
_symmetry_Int_Tables_number   1
_chemical_formula_structural   Ca2MgBe
_chemical_formula_sum   'Ca2 Mg1 Be1'
_cell_volume   94.27832172
_cell_formula_units_Z   1
loop_
 _symmetry_equiv_pos_site_id
 _symmetry_equiv_pos_as_xyz
  1  'x, y, z'
loop_
 _atom_site_type_symbol
 _atom_site_label
 _atom_site_symmetry_multiplicity
 _atom_site_fract_x
 _atom_site_fract_y
 _atom_site_fract_z
 _atom_site_occupancy
  Ca  Ca0  1  0.00000000  0.00000000  0.00000000  1
  Ca  Ca1  1  0.24999999  0.74999927  0.49999928  1
  Mg  Mg2  1  0.49999998  0.49999998  0.00000000  1
  Be  Be3  1  0.74999927  0.24999999  0.49999928  1
