# generated using pymatgen
data_Mn2As2O7
_symmetry_space_group_name_H-M   'P 1'
_cell_length_a   5.53798858
_cell_length_b   5.53798858
_cell_length_c   4.87920450
_cell_angle_alpha   82.19763375
_cell_angle_beta   82.19763375
_cell_angle_gamma   104.45578700
_symmetry_Int_Tables_number   1
_chemical_formula_structural   Mn2As2O7
_chemical_formula_sum   'Mn2 As2 O7'
_cell_volume   141.30047467
_cell_formula_units_Z   1
loop_
 _symmetry_equiv_pos_site_id
 _symmetry_equiv_pos_as_xyz
  1  'x, y, z'
loop_
 _atom_site_type_symbol
 _atom_site_label
 _atom_site_symmetry_multiplicity
 _atom_site_fract_x
 _atom_site_fract_y
 _atom_site_fract_z
 _atom_site_occupancy
  Mn  Mn0  1  0.30596461  0.69403563  0.49999972  1
  Mn  Mn1  1  0.69403563  0.30596461  0.49999972  1
  As  As2  1  0.76560623  0.76560623  0.90479273  1
  As  As3  1  0.23439401  0.23439401  0.09520671  1
  O  O4  1  0.00000000  0.00000000  0.00000000  1
  O  O5  1  0.59879461  0.59879461  0.22668938  1
  O  O6  1  0.40120563  0.40120563  0.77331007  1
  O  O7  1  0.92779552  0.60034901  0.71205399  1
  O  O8  1  0.39965122  0.07220472  0.28794545  1
  O  O9  1  0.07220472  0.39965122  0.28794545  1
  O  O10  1  0.60034901  0.92779552  0.71205399  1
