# generated using pymatgen
data_Ho3In5
_symmetry_space_group_name_H-M   'P 1'
_cell_length_a   6.35911284
_cell_length_b   6.35911284
_cell_length_c   10.33018382
_cell_angle_alpha   90.00000000
_cell_angle_beta   90.00000000
_cell_angle_gamma   101.49917168
_symmetry_Int_Tables_number   1
_chemical_formula_structural   Ho3In5
_chemical_formula_sum   'Ho6 In10'
_cell_volume   409.35028407
_cell_formula_units_Z   2
loop_
 _symmetry_equiv_pos_site_id
 _symmetry_equiv_pos_as_xyz
  1  'x, y, z'
loop_
 _atom_site_type_symbol
 _atom_site_label
 _atom_site_symmetry_multiplicity
 _atom_site_fract_x
 _atom_site_fract_y
 _atom_site_fract_z
 _atom_site_occupancy
  Ho  Ho0  1  0.38539246  0.38539246  0.24999991  1
  Ho  Ho1  1  0.61460750  0.61460750  0.74999972  1
  Ho  Ho2  1  0.79449766  0.20550230  0.00000000  1
  Ho  Ho3  1  0.20550230  0.79449766  0.49999981  1
  Ho  Ho4  1  0.20550230  0.79449766  0.00000000  1
  Ho  Ho5  1  0.79449766  0.20550230  0.49999981  1
  In  In6  1  0.99821626  0.99821626  0.24999991  1
  In  In7  1  0.00178370  0.00178370  0.74999972  1
  In  In8  1  0.69497573  0.69497573  0.45731928  1
  In  In9  1  0.30502423  0.30502423  0.95731910  1
  In  In10  1  0.69497573  0.69497573  0.04268053  1
  In  In11  1  0.30502423  0.30502423  0.54268035  1
  In  In12  1  0.49327443  0.93110511  0.24999991  1
  In  In13  1  0.50672553  0.06889485  0.74999972  1
  In  In14  1  0.93110511  0.49327443  0.24999991  1
  In  In15  1  0.06889485  0.50672553  0.74999972  1
