# generated using pymatgen
data_Na2BeCo
_symmetry_space_group_name_H-M   'P 1'
_cell_length_a   4.49076768
_cell_length_b   4.49076768
_cell_length_c   4.49076768
_cell_angle_alpha   119.93882578
_cell_angle_beta   119.93882578
_cell_angle_gamma   90.10598955
_symmetry_Int_Tables_number   1
_chemical_formula_structural   Na2BeCo
_chemical_formula_sum   'Na2 Be1 Co1'
_cell_volume   64.09842315
_cell_formula_units_Z   1
loop_
 _symmetry_equiv_pos_site_id
 _symmetry_equiv_pos_as_xyz
  1  'x, y, z'
loop_
 _atom_site_type_symbol
 _atom_site_label
 _atom_site_symmetry_multiplicity
 _atom_site_fract_x
 _atom_site_fract_y
 _atom_site_fract_z
 _atom_site_occupancy
  Na  Na0  1  0.00000000  0.00000000  0.00000000  1
  Na  Na1  1  0.24999970  0.74999976  0.50000006  1
  Be  Be2  1  0.49999940  0.49999940  0.00000000  1
  Co  Co3  1  0.74999976  0.24999970  0.50000006  1
