# generated using pymatgen
data_SrBe2Pb
_symmetry_space_group_name_H-M   'P 1'
_cell_length_a   3.66224942
_cell_length_b   3.66224942
_cell_length_c   6.77009137
_cell_angle_alpha   90.00000000
_cell_angle_beta   90.00000000
_cell_angle_gamma   90.00000000
_symmetry_Int_Tables_number   1
_chemical_formula_structural   SrBe2Pb
_chemical_formula_sum   'Sr1 Be2 Pb1'
_cell_volume   90.80094484
_cell_formula_units_Z   1
loop_
 _symmetry_equiv_pos_site_id
 _symmetry_equiv_pos_as_xyz
  1  'x, y, z'
loop_
 _atom_site_type_symbol
 _atom_site_label
 _atom_site_symmetry_multiplicity
 _atom_site_fract_x
 _atom_site_fract_y
 _atom_site_fract_z
 _atom_site_occupancy
  Sr  Sr0  1  0.50000008  0.50000008  0.49999990  1
  Be  Be1  1  0.00000000  0.00000000  0.82913713  1
  Be  Be2  1  0.00000000  0.00000000  0.17086267  1
  Pb  Pb3  1  0.50000008  0.50000008  0.00000000  1
