# generated using pymatgen
data_MnBeCl
_symmetry_space_group_name_H-M   'P 1'
_cell_length_a   3.01250579
_cell_length_b   3.01250579
_cell_length_c   5.36621584
_cell_angle_alpha   90.00000000
_cell_angle_beta   90.00000000
_cell_angle_gamma   120.00000459
_symmetry_Int_Tables_number   1
_chemical_formula_structural   MnBeCl
_chemical_formula_sum   'Mn1 Be1 Cl1'
_cell_volume   42.17494552
_cell_formula_units_Z   1
loop_
 _symmetry_equiv_pos_site_id
 _symmetry_equiv_pos_as_xyz
  1  'x, y, z'
loop_
 _atom_site_type_symbol
 _atom_site_label
 _atom_site_symmetry_multiplicity
 _atom_site_fract_x
 _atom_site_fract_y
 _atom_site_fract_z
 _atom_site_occupancy
  Mn  Mn0  1  0.33333186  0.66666629  0.68355194  1
  Be  Be1  1  0.00000000  0.00000000  0.99474912  1
  Cl  Cl2  1  0.66666629  0.33333186  0.32170149  1
