# generated using pymatgen
data_NiS2
_symmetry_space_group_name_H-M   'P 1'
_cell_length_a   5.63082559
_cell_length_b   5.63052721
_cell_length_c   5.63058366
_cell_angle_alpha   90.00023158
_cell_angle_beta   90.00079609
_cell_angle_gamma   90.00034649
_symmetry_Int_Tables_number   1
_chemical_formula_structural   NiS2
_chemical_formula_sum   'Ni4 S8'
_cell_volume   178.51493359
_cell_formula_units_Z   4
loop_
 _symmetry_equiv_pos_site_id
 _symmetry_equiv_pos_as_xyz
  1  'x, y, z'
loop_
 _atom_site_type_symbol
 _atom_site_label
 _atom_site_symmetry_multiplicity
 _atom_site_fract_x
 _atom_site_fract_y
 _atom_site_fract_z
 _atom_site_occupancy
  Ni  Ni0  1  0.00248070  0.99557715  0.99605874  1
  Ni  Ni1  1  0.50252142  0.99556411  0.49606704  1
  Ni  Ni2  1  0.00251492  0.49556815  0.49608317  1
  Ni  Ni3  1  0.50248078  0.49558958  0.99607301  1
  S  S4  1  0.39488375  0.38795182  0.38845663  1
  S  S5  1  0.89486126  0.60322727  0.10372717  1
  S  S6  1  0.61012001  0.10322358  0.88845627  1
  S  S7  1  0.11013429  0.88794917  0.60372018  1
  S  S8  1  0.61014412  0.60322491  0.60372606  1
  S  S9  1  0.11012387  0.38795524  0.88845999  1
  S  S10  1  0.39485910  0.88795250  0.10371908  1
  S  S11  1  0.89487421  0.10321624  0.38845236  1
