# generated using pymatgen
data_Be2ZnFe
_symmetry_space_group_name_H-M   'P 1'
_cell_length_a   4.43925295
_cell_length_b   4.43925295
_cell_length_c   4.43925295
_cell_angle_alpha   137.08466506
_cell_angle_beta   137.08466506
_cell_angle_gamma   62.30780945
_symmetry_Int_Tables_number   1
_chemical_formula_structural   Be2ZnFe
_chemical_formula_sum   'Be2 Zn1 Fe1'
_cell_volume   40.07486769
_cell_formula_units_Z   1
loop_
 _symmetry_equiv_pos_site_id
 _symmetry_equiv_pos_as_xyz
  1  'x, y, z'
loop_
 _atom_site_type_symbol
 _atom_site_label
 _atom_site_symmetry_multiplicity
 _atom_site_fract_x
 _atom_site_fract_y
 _atom_site_fract_z
 _atom_site_occupancy
  Be  Be0  1  0.00000000  0.00000000  0.00000000  1
  Be  Be1  1  0.25000019  0.75000033  0.50000015  1
  Zn  Zn2  1  0.75000033  0.25000019  0.50000015  1
  Fe  Fe3  1  0.50000037  0.50000037  0.00000000  1
