# generated using pymatgen
data_Hf(CoGe)6
_symmetry_space_group_name_H-M   'P 1'
_cell_length_a   5.06160638
_cell_length_b   5.06160638
_cell_length_c   7.74072459
_cell_angle_alpha   90.00000000
_cell_angle_beta   90.00000000
_cell_angle_gamma   120.00001234
_symmetry_Int_Tables_number   1
_chemical_formula_structural   Hf(CoGe)6
_chemical_formula_sum   'Hf1 Co6 Ge6'
_cell_volume   171.74690942
_cell_formula_units_Z   1
loop_
 _symmetry_equiv_pos_site_id
 _symmetry_equiv_pos_as_xyz
  1  'x, y, z'
loop_
 _atom_site_type_symbol
 _atom_site_label
 _atom_site_symmetry_multiplicity
 _atom_site_fract_x
 _atom_site_fract_y
 _atom_site_fract_z
 _atom_site_occupancy
  Hf  Hf0  1  0.00000000  0.00000000  0.00000000  1
  Co  Co1  1  0.49999973  -0.00000027  0.24955070  1
  Co  Co2  1  -0.00000027  0.49999973  0.24955070  1
  Co  Co3  1  0.49999946  0.49999946  0.24954411  1
  Co  Co4  1  -0.00000027  0.49999973  0.75044871  1
  Co  Co5  1  0.49999973  -0.00000027  0.75044871  1
  Co  Co6  1  0.49999946  0.49999946  0.75045530  1
  Ge  Ge7  1  0.33333022  0.66666871  0.00000000  1
  Ge  Ge8  1  0.66666871  0.33333022  0.00000000  1
  Ge  Ge9  1  0.33333433  0.66666460  0.49999970  1
  Ge  Ge10  1  0.66666460  0.33333433  0.49999970  1
  Ge  Ge11  1  0.00000000  0.00000000  0.33896726  1
  Ge  Ge12  1  0.00000000  0.00000000  0.66103215  1
