# generated using pymatgen
data_ThNi
_symmetry_space_group_name_H-M   'P 1'
_cell_length_a   4.33291928
_cell_length_b   5.86266088
_cell_length_c   14.54770042
_cell_angle_alpha   90.00000000
_cell_angle_beta   90.00000000
_cell_angle_gamma   90.00000000
_symmetry_Int_Tables_number   1
_chemical_formula_structural   ThNi
_chemical_formula_sum   'Th8 Ni8'
_cell_volume   369.54703397
_cell_formula_units_Z   8
loop_
 _symmetry_equiv_pos_site_id
 _symmetry_equiv_pos_as_xyz
  1  'x, y, z'
loop_
 _atom_site_type_symbol
 _atom_site_label
 _atom_site_symmetry_multiplicity
 _atom_site_fract_x
 _atom_site_fract_y
 _atom_site_fract_z
 _atom_site_occupancy
  Th  Th0  1  0.75000012  0.44593368  0.28433327  1
  Th  Th1  1  0.25000004  0.94593361  0.21566672  1
  Th  Th2  1  0.25000004  0.55406617  0.71566670  1
  Th  Th3  1  0.75000012  0.05406624  0.78433325  1
  Th  Th4  1  0.75000012  0.25835823  0.03444916  1
  Th  Th5  1  0.25000004  0.75835816  0.46555083  1
  Th  Th6  1  0.25000004  0.74164162  0.96555081  1
  Th  Th7  1  0.75000012  0.24164169  0.53444915  1
  Ni  Ni8  1  0.75000012  0.95680427  0.35350482  1
  Ni  Ni9  1  0.25000004  0.45680434  0.14649516  1
  Ni  Ni10  1  0.25000004  0.04319558  0.64649515  1
  Ni  Ni11  1  0.75000012  0.54319551  0.85350481  1
  Ni  Ni12  1  0.75000012  0.75225148  0.10193477  1
  Ni  Ni13  1  0.25000004  0.25225155  0.39806521  1
  Ni  Ni14  1  0.25000004  0.24774837  0.89806520  1
  Ni  Ni15  1  0.75000012  0.74774830  0.60193476  1
