# generated using pymatgen
data_SrBeBi2
_symmetry_space_group_name_H-M   'P 1'
_cell_length_a   6.17602094
_cell_length_b   6.17602094
_cell_length_c   6.17602094
_cell_angle_alpha   135.94351112
_cell_angle_beta   135.94351112
_cell_angle_gamma   64.06768000
_symmetry_Int_Tables_number   1
_chemical_formula_structural   SrBeBi2
_chemical_formula_sum   'Sr1 Be1 Bi2'
_cell_volume   112.37151321
_cell_formula_units_Z   1
loop_
 _symmetry_equiv_pos_site_id
 _symmetry_equiv_pos_as_xyz
  1  'x, y, z'
loop_
 _atom_site_type_symbol
 _atom_site_label
 _atom_site_symmetry_multiplicity
 _atom_site_fract_x
 _atom_site_fract_y
 _atom_site_fract_z
 _atom_site_occupancy
  Sr  Sr0  1  0.50000010  0.50000010  0.00000000  1
  Be  Be1  1  0.74999990  0.25000005  0.49999985  1
  Bi  Bi2  1  0.00000000  0.00000000  0.00000000  1
  Bi  Bi3  1  0.25000005  0.74999990  0.49999985  1
