# generated using pymatgen
data_NbNiTe2
_symmetry_space_group_name_H-M   'P 1'
_cell_length_a   6.31456452
_cell_length_b   7.33870649
_cell_length_c   8.01767408
_cell_angle_alpha   90.00000000
_cell_angle_beta   90.00000000
_cell_angle_gamma   90.00000000
_symmetry_Int_Tables_number   1
_chemical_formula_structural   NbNiTe2
_chemical_formula_sum   'Nb4 Ni4 Te8'
_cell_volume   371.54491487
_cell_formula_units_Z   4
loop_
 _symmetry_equiv_pos_site_id
 _symmetry_equiv_pos_as_xyz
  1  'x, y, z'
loop_
 _atom_site_type_symbol
 _atom_site_label
 _atom_site_symmetry_multiplicity
 _atom_site_fract_x
 _atom_site_fract_y
 _atom_site_fract_z
 _atom_site_occupancy
  Nb  Nb0  1  0.25000113  0.53738623  0.54369709  1
  Nb  Nb1  1  0.74999815  0.53738623  0.45630240  1
  Nb  Nb2  1  0.74999815  0.53738623  0.04369735  1
  Nb  Nb3  1  0.25000113  0.53738623  0.95630215  1
  Ni  Ni4  1  0.39292998  0.41813156  0.24999987  1
  Ni  Ni5  1  0.60706930  0.41813156  0.74999962  1
  Ni  Ni6  1  0.10701910  0.65666448  0.24999987  1
  Ni  Ni7  1  0.89298019  0.65666448  0.74999962  1
  Te  Te8  1  0.49999964  0.21699982  0.49999975  1
  Te  Te9  1  0.49999964  0.21699982  0.00000000  1
  Te  Te10  1  0.50206690  0.76205085  0.24999987  1
  Te  Te11  1  0.49793239  0.76205085  0.74999962  1
  Te  Te12  1  0.00000000  0.85777395  0.49999975  1
  Te  Te13  1  0.00000000  0.85777395  0.00000000  1
  Te  Te14  1  -0.00208865  0.31270894  0.24999987  1
  Te  Te15  1  0.00208865  0.31270894  0.74999962  1
