# generated using pymatgen
data_TaBe2Ni
_symmetry_space_group_name_H-M   'P 1'
_cell_length_a   2.72350413
_cell_length_b   2.72350413
_cell_length_c   6.07317730
_cell_angle_alpha   90.00000000
_cell_angle_beta   90.00000000
_cell_angle_gamma   90.00000000
_symmetry_Int_Tables_number   1
_chemical_formula_structural   TaBe2Ni
_chemical_formula_sum   'Ta1 Be2 Ni1'
_cell_volume   45.04763938
_cell_formula_units_Z   1
loop_
 _symmetry_equiv_pos_site_id
 _symmetry_equiv_pos_as_xyz
  1  'x, y, z'
loop_
 _atom_site_type_symbol
 _atom_site_label
 _atom_site_symmetry_multiplicity
 _atom_site_fract_x
 _atom_site_fract_y
 _atom_site_fract_z
 _atom_site_occupancy
  Ta  Ta0  1  0.49999924  0.49999924  0.75760311  1
  Be  Be1  1  0.00000000  0.00000000  0.05416243  1
  Be  Be2  1  0.49999924  0.49999924  0.24500964  1
  Ni  Ni3  1  0.00000000  0.00000000  0.44322549  1
