# generated using pymatgen
data_La2Co3
_symmetry_space_group_name_H-M   'P 1'
_cell_length_a   5.68028877
_cell_length_b   5.68028877
_cell_length_c   7.63094200
_cell_angle_alpha   90.00000000
_cell_angle_beta   90.00000000
_cell_angle_gamma   129.82452745
_symmetry_Int_Tables_number   1
_chemical_formula_structural   La2Co3
_chemical_formula_sum   'La4 Co6'
_cell_volume   189.09739018
_cell_formula_units_Z   2
loop_
 _symmetry_equiv_pos_site_id
 _symmetry_equiv_pos_as_xyz
  1  'x, y, z'
loop_
 _atom_site_type_symbol
 _atom_site_label
 _atom_site_symmetry_multiplicity
 _atom_site_fract_x
 _atom_site_fract_y
 _atom_site_fract_z
 _atom_site_occupancy
  La  La0  1  0.15074471  0.84925357  0.58896970  1
  La  La1  1  0.34925336  0.65074491  0.08896983  1
  La  La2  1  0.65074491  0.34925336  0.91102991  1
  La  La3  1  0.84925357  0.15074471  0.41103004  1
  Co  Co4  1  0.00000000  0.00000000  0.00000000  1
  Co  Co5  1  0.49999914  0.49999914  0.49999987  1
  Co  Co6  1  0.65835003  0.84164739  0.74999980  1
  Co  Co7  1  0.84164739  0.65835003  0.24999993  1
  Co  Co8  1  0.34164825  0.15835089  0.24999993  1
  Co  Co9  1  0.15835089  0.34164825  0.74999980  1
