# generated using pymatgen
data_BeZnBi2
_symmetry_space_group_name_H-M   'P 1'
_cell_length_a   5.18498450
_cell_length_b   5.18498450
_cell_length_c   5.18498450
_cell_angle_alpha   123.69310494
_cell_angle_beta   123.69310494
_cell_angle_gamma   83.71416299
_symmetry_Int_Tables_number   1
_chemical_formula_structural   BeZnBi2
_chemical_formula_sum   'Be1 Zn1 Bi2'
_cell_volume   92.45455085
_cell_formula_units_Z   1
loop_
 _symmetry_equiv_pos_site_id
 _symmetry_equiv_pos_as_xyz
  1  'x, y, z'
loop_
 _atom_site_type_symbol
 _atom_site_label
 _atom_site_symmetry_multiplicity
 _atom_site_fract_x
 _atom_site_fract_y
 _atom_site_fract_z
 _atom_site_occupancy
  Be  Be0  1  0.74999923  0.25000022  0.49999901  1
  Zn  Zn1  1  0.25000022  0.74999923  0.49999901  1
  Bi  Bi2  1  0.00000000  0.00000000  0.00000000  1
  Bi  Bi3  1  0.50000045  0.50000045  0.00000000  1
