# generated using pymatgen
data_LiBeV2
_symmetry_space_group_name_H-M   'P 1'
_cell_length_a   3.02906233
_cell_length_b   3.02906233
_cell_length_c   5.78561104
_cell_angle_alpha   90.00000000
_cell_angle_beta   90.00000000
_cell_angle_gamma   90.00000000
_symmetry_Int_Tables_number   1
_chemical_formula_structural   LiBeV2
_chemical_formula_sum   'Li1 Be1 V2'
_cell_volume   53.08424614
_cell_formula_units_Z   1
loop_
 _symmetry_equiv_pos_site_id
 _symmetry_equiv_pos_as_xyz
  1  'x, y, z'
loop_
 _atom_site_type_symbol
 _atom_site_label
 _atom_site_symmetry_multiplicity
 _atom_site_fract_x
 _atom_site_fract_y
 _atom_site_fract_z
 _atom_site_occupancy
  Li  Li0  1  0.49999961  0.49999961  0.72695831  1
  Be  Be1  1  0.00000000  0.00000000  0.46827029  1
  V  V2  1  0.00000000  0.00000000  0.05049051  1
  V  V3  1  0.49999961  0.49999961  0.25428062  1
