# generated using pymatgen
data_PrPdPb
_symmetry_space_group_name_H-M   'P 1'
_cell_length_a   7.87173273
_cell_length_b   7.87173273
_cell_length_c   4.14380274
_cell_angle_alpha   90.00000000
_cell_angle_beta   90.00000000
_cell_angle_gamma   120.00119065
_symmetry_Int_Tables_number   1
_chemical_formula_structural   PrPdPb
_chemical_formula_sum   'Pr3 Pd3 Pb3'
_cell_volume   222.36435687
_cell_formula_units_Z   3
loop_
 _symmetry_equiv_pos_site_id
 _symmetry_equiv_pos_as_xyz
  1  'x, y, z'
loop_
 _atom_site_type_symbol
 _atom_site_label
 _atom_site_symmetry_multiplicity
 _atom_site_fract_x
 _atom_site_fract_y
 _atom_site_fract_z
 _atom_site_occupancy
  Pr  Pr0  1  0.59258527  0.99999791  0.49999967  1
  Pr  Pr1  1  0.99999791  0.59258527  0.49999967  1
  Pr  Pr2  1  0.40741465  0.40741465  0.49999967  1
  Pd  Pd3  1  0.33335522  0.66668102  0.00000000  1
  Pd  Pd4  1  0.66668102  0.33335522  0.00000000  1
  Pd  Pd5  1  -0.00000530  -0.00000530  0.49999967  1
  Pb  Pb6  1  0.25756085  -0.00001549  0.00000000  1
  Pb  Pb7  1  -0.00001549  0.25756085  0.00000000  1
  Pb  Pb8  1  0.74243041  0.74243041  0.00000000  1
