# generated using pymatgen
data_Be2InRu
_symmetry_space_group_name_H-M   'P 1'
_cell_length_a   3.05487326
_cell_length_b   3.05487326
_cell_length_c   5.65490421
_cell_angle_alpha   90.00000000
_cell_angle_beta   90.00000000
_cell_angle_gamma   90.00000000
_symmetry_Int_Tables_number   1
_chemical_formula_structural   Be2InRu
_chemical_formula_sum   'Be2 In1 Ru1'
_cell_volume   52.77298338
_cell_formula_units_Z   1
loop_
 _symmetry_equiv_pos_site_id
 _symmetry_equiv_pos_as_xyz
  1  'x, y, z'
loop_
 _atom_site_type_symbol
 _atom_site_label
 _atom_site_symmetry_multiplicity
 _atom_site_fract_x
 _atom_site_fract_y
 _atom_site_fract_z
 _atom_site_occupancy
  Be  Be0  1  0.00000000  0.00000000  0.68223815  1
  Be  Be1  1  0.00000000  0.00000000  0.31776111  1
  In  In2  1  0.49999947  0.49999947  0.00000000  1
  Ru  Ru3  1  0.49999947  0.49999947  0.49999963  1
