# generated using pymatgen
data_Sc2BeOs
_symmetry_space_group_name_H-M   'P 1'
_cell_length_a   4.80706709
_cell_length_b   4.80706709
_cell_length_c   4.80706709
_cell_angle_alpha   130.04082891
_cell_angle_beta   130.04082891
_cell_angle_gamma   73.34150149
_symmetry_Int_Tables_number   1
_chemical_formula_structural   Sc2BeOs
_chemical_formula_sum   'Sc2 Be1 Os1'
_cell_volume   63.55520153
_cell_formula_units_Z   1
loop_
 _symmetry_equiv_pos_site_id
 _symmetry_equiv_pos_as_xyz
  1  'x, y, z'
loop_
 _atom_site_type_symbol
 _atom_site_label
 _atom_site_symmetry_multiplicity
 _atom_site_fract_x
 _atom_site_fract_y
 _atom_site_fract_z
 _atom_site_occupancy
  Sc  Sc0  1  0.00000000  0.00000000  0.00000000  1
  Sc  Sc1  1  0.25000030  0.74999983  0.49999953  1
  Be  Be2  1  0.50000060  0.50000060  0.00000000  1
  Os  Os3  1  0.74999983  0.25000030  0.49999953  1
