# generated using pymatgen
data_BaMgF4
_symmetry_space_group_name_H-M   'P 1'
_cell_length_a   7.52727674
_cell_length_b   7.52727674
_cell_length_c   5.84767226
_cell_angle_alpha   90.00000000
_cell_angle_beta   90.00000000
_cell_angle_gamma   147.91414662
_symmetry_Int_Tables_number   1
_chemical_formula_structural   BaMgF4
_chemical_formula_sum   'Ba2 Mg2 F8'
_cell_volume   175.99818692
_cell_formula_units_Z   2
loop_
 _symmetry_equiv_pos_site_id
 _symmetry_equiv_pos_as_xyz
  1  'x, y, z'
loop_
 _atom_site_type_symbol
 _atom_site_label
 _atom_site_symmetry_multiplicity
 _atom_site_fract_x
 _atom_site_fract_y
 _atom_site_fract_z
 _atom_site_occupancy
  Ba  Ba0  1  0.85347737  0.14652304  0.54401408  1
  Ba  Ba1  1  0.14652304  0.85347737  0.04401427  1
  Mg  Mg2  1  0.41318815  0.58681226  0.00990258  1
  Mg  Mg3  1  0.58681226  0.41318815  0.50990239  1
  F  F4  1  0.33107583  0.66892459  0.27273883  1
  F  F5  1  0.66892459  0.33107583  0.77273863  1
  F  F6  1  0.30352057  0.69647985  0.80953084  1
  F  F7  1  0.69647985  0.30352057  0.30953103  1
  F  F8  1  0.47642000  0.52358042  0.70265000  1
  F  F9  1  0.52358042  0.47642000  0.20265020  1
  F  F10  1  0.92151566  0.07848475  0.00296277  1
  F  F11  1  0.07848475  0.92151566  0.50296258  1
