# generated using pymatgen
data_LaGe2Rh
_symmetry_space_group_name_H-M   'P 1'
_cell_length_a   8.95532325
_cell_length_b   8.95532325
_cell_length_c   4.39026809
_cell_angle_alpha   90.00000000
_cell_angle_beta   90.00000000
_cell_angle_gamma   151.55214073
_symmetry_Int_Tables_number   1
_chemical_formula_structural   LaGe2Rh
_chemical_formula_sum   'La2 Ge4 Rh2'
_cell_volume   167.72113047
_cell_formula_units_Z   2
loop_
 _symmetry_equiv_pos_site_id
 _symmetry_equiv_pos_as_xyz
  1  'x, y, z'
loop_
 _atom_site_type_symbol
 _atom_site_label
 _atom_site_symmetry_multiplicity
 _atom_site_fract_x
 _atom_site_fract_y
 _atom_site_fract_z
 _atom_site_occupancy
  La  La0  1  0.10840025  0.89159854  0.75000033  1
  La  La1  1  0.89159854  0.10840025  0.25000011  1
  Ge  Ge2  1  0.45935705  0.54064174  0.75000033  1
  Ge  Ge3  1  0.54064174  0.45935705  0.25000011  1
  Ge  Ge4  1  0.74976716  0.25023163  0.75000033  1
  Ge  Ge5  1  0.25023163  0.74976716  0.25000011  1
  Rh  Rh6  1  0.31953808  0.68046071  0.75000033  1
  Rh  Rh7  1  0.68046071  0.31953808  0.25000011  1
