# generated using pymatgen
data_CaGePt
_symmetry_space_group_name_H-M   'P 1'
_cell_length_a   4.43837414
_cell_length_b   7.17325052
_cell_length_c   7.51669704
_cell_angle_alpha   90.00000000
_cell_angle_beta   90.00000000
_cell_angle_gamma   90.00000000
_symmetry_Int_Tables_number   1
_chemical_formula_structural   CaGePt
_chemical_formula_sum   'Ca4 Ge4 Pt4'
_cell_volume   239.31336513
_cell_formula_units_Z   4
loop_
 _symmetry_equiv_pos_site_id
 _symmetry_equiv_pos_as_xyz
  1  'x, y, z'
loop_
 _atom_site_type_symbol
 _atom_site_label
 _atom_site_symmetry_multiplicity
 _atom_site_fract_x
 _atom_site_fract_y
 _atom_site_fract_z
 _atom_site_occupancy
  Ca  Ca0  1  0.24999977  0.99329040  0.30228121  1
  Ca  Ca1  1  0.74999930  0.50670949  0.80228140  1
  Ca  Ca2  1  0.74999930  0.00670952  0.69771919  1
  Ca  Ca3  1  0.24999977  0.49329044  0.19771899  1
  Ge  Ge4  1  0.24999977  0.31761058  0.58322237  1
  Ge  Ge5  1  0.74999930  0.18238938  0.08322218  1
  Ge  Ge6  1  0.74999930  0.68238934  0.41677802  1
  Ge  Ge7  1  0.24999977  0.81761055  0.91677822  1
  Pt  Pt8  1  0.24999977  0.20065902  0.90824698  1
  Pt  Pt9  1  0.74999930  0.29934095  0.40824679  1
  Pt  Pt10  1  0.74999930  0.79934091  0.09175341  1
  Pt  Pt11  1  0.24999977  0.70065898  0.59175361  1
