# generated using pymatgen
data_SrCdBi2
_symmetry_space_group_name_H-M   'P 1'
_cell_length_a   11.81926046
_cell_length_b   11.81926046
_cell_length_c   11.81926046
_cell_angle_alpha   157.03675902
_cell_angle_beta   157.03675902
_cell_angle_gamma   32.70001000
_symmetry_Int_Tables_number   1
_chemical_formula_structural   SrCdBi2
_chemical_formula_sum   'Sr2 Cd2 Bi4'
_cell_volume   251.09786226
_cell_formula_units_Z   2
loop_
 _symmetry_equiv_pos_site_id
 _symmetry_equiv_pos_as_xyz
  1  'x, y, z'
loop_
 _atom_site_type_symbol
 _atom_site_label
 _atom_site_symmetry_multiplicity
 _atom_site_fract_x
 _atom_site_fract_y
 _atom_site_fract_z
 _atom_site_occupancy
  Sr  Sr0  1  0.11720904  0.11720904  0.00000000  1
  Sr  Sr1  1  0.88279103  0.88279103  0.00000000  1
  Cd  Cd2  1  0.75000084  0.25000002  0.50000082  1
  Cd  Cd3  1  0.25000002  0.75000084  0.50000082  1
  Bi  Bi4  1  0.50000082  0.00000000  0.50000082  1
  Bi  Bi5  1  0.00000000  0.50000082  0.50000082  1
  Bi  Bi6  1  0.33947937  0.33947937  0.00000000  1
  Bi  Bi7  1  0.66052069  0.66052069  0.00000000  1
