# generated using pymatgen
data_AsPd2
_symmetry_space_group_name_H-M   'P 1'
_cell_length_a   6.77937682
_cell_length_b   6.77937682
_cell_length_c   3.63902347
_cell_angle_alpha   90.00000000
_cell_angle_beta   90.00000000
_cell_angle_gamma   119.99999534
_symmetry_Int_Tables_number   1
_chemical_formula_structural   AsPd2
_chemical_formula_sum   'As3 Pd6'
_cell_volume   144.84218163
_cell_formula_units_Z   3
loop_
 _symmetry_equiv_pos_site_id
 _symmetry_equiv_pos_as_xyz
  1  'x, y, z'
loop_
 _atom_site_type_symbol
 _atom_site_label
 _atom_site_symmetry_multiplicity
 _atom_site_fract_x
 _atom_site_fract_y
 _atom_site_fract_z
 _atom_site_occupancy
  As  As0  1  0.66666713  0.33333327  0.00000000  1
  As  As1  1  0.33333327  0.66666713  0.00000000  1
  As  As2  1  0.00000000  0.00000000  0.49999952  1
  Pd  Pd3  1  0.26872420  0.00000011  0.00000000  1
  Pd  Pd4  1  0.73127609  0.73127609  0.00000000  1
  Pd  Pd5  1  0.00000011  0.26872420  0.00000000  1
  Pd  Pd6  1  0.60875062  0.00000025  0.49999952  1
  Pd  Pd7  1  0.39124953  0.39124953  0.49999952  1
  Pd  Pd8  1  0.00000025  0.60875062  0.49999952  1
