# generated using pymatgen
data_Be2ZnTe
_symmetry_space_group_name_H-M   'P 1'
_cell_length_a   6.32512638
_cell_length_b   6.32512638
_cell_length_c   6.32512638
_cell_angle_alpha   147.59460999
_cell_angle_beta   147.59460999
_cell_angle_gamma   46.48416450
_symmetry_Int_Tables_number   1
_chemical_formula_structural   Be2ZnTe
_chemical_formula_sum   'Be2 Zn1 Te1'
_cell_volume   72.41550358
_cell_formula_units_Z   1
loop_
 _symmetry_equiv_pos_site_id
 _symmetry_equiv_pos_as_xyz
  1  'x, y, z'
loop_
 _atom_site_type_symbol
 _atom_site_label
 _atom_site_symmetry_multiplicity
 _atom_site_fract_x
 _atom_site_fract_y
 _atom_site_fract_z
 _atom_site_occupancy
  Be  Be0  1  0.00000000  0.00000000  0.00000000  1
  Be  Be1  1  0.25000019  0.75000028  0.50000008  1
  Zn  Zn2  1  0.75000028  0.25000019  0.50000008  1
  Te  Te3  1  0.50000039  0.50000039  0.00000000  1
