# generated using pymatgen
data_DyFe3
_symmetry_space_group_name_H-M   'P 1'
_cell_length_a   8.50497678
_cell_length_b   8.50497678
_cell_length_c   8.50497678
_cell_angle_alpha   33.55548534
_cell_angle_beta   33.55548534
_cell_angle_gamma   33.55548534
_symmetry_Int_Tables_number   1
_chemical_formula_structural   DyFe3
_chemical_formula_sum   'Dy3 Fe9'
_cell_volume   167.42083864
_cell_formula_units_Z   3
loop_
 _symmetry_equiv_pos_site_id
 _symmetry_equiv_pos_as_xyz
  1  'x, y, z'
loop_
 _atom_site_type_symbol
 _atom_site_label
 _atom_site_symmetry_multiplicity
 _atom_site_fract_x
 _atom_site_fract_y
 _atom_site_fract_z
 _atom_site_occupancy
  Dy  Dy0  1  0.00000000  0.00000000  0.00000000  1
  Dy  Dy1  1  0.85994590  0.85994590  0.85994453  1
  Dy  Dy2  1  0.14005465  0.14005465  0.14005443  1
  Fe  Fe3  1  0.50000028  0.50000028  0.49999948  1
  Fe  Fe4  1  0.66224345  0.66224345  0.66224240  1
  Fe  Fe5  1  0.33775710  0.33775710  0.33775656  1
  Fe  Fe6  1  0.92675224  0.41667085  0.41667011  1
  Fe  Fe7  1  0.41667116  0.41667116  0.92675121  1
  Fe  Fe8  1  0.41667085  0.92675224  0.41667011  1
  Fe  Fe9  1  0.07324831  0.58332970  0.58332885  1
  Fe  Fe10  1  0.58332970  0.07324831  0.58332885  1
  Fe  Fe11  1  0.58332939  0.58332939  0.07324774  1
