# generated using pymatgen
data_Rb2ZnI4
_symmetry_space_group_name_H-M   'P 1'
_cell_length_a   8.08246493
_cell_length_b   7.63601033
_cell_length_c   10.27724305
_cell_angle_alpha   70.34489003
_cell_angle_beta   90.00000000
_cell_angle_gamma   90.00000000
_symmetry_Int_Tables_number   1
_chemical_formula_structural   Rb2ZnI4
_chemical_formula_sum   'Rb4 Zn2 I8'
_cell_volume   597.33144982
_cell_formula_units_Z   2
loop_
 _symmetry_equiv_pos_site_id
 _symmetry_equiv_pos_as_xyz
  1  'x, y, z'
loop_
 _atom_site_type_symbol
 _atom_site_label
 _atom_site_symmetry_multiplicity
 _atom_site_fract_x
 _atom_site_fract_y
 _atom_site_fract_z
 _atom_site_occupancy
  Rb  Rb0  1  0.74999954  0.30123735  0.03912345  1
  Rb  Rb1  1  0.24999985  0.69876197  0.96087658  1
  Rb  Rb2  1  0.74999954  0.20734110  0.58592247  1
  Rb  Rb3  1  0.24999985  0.79265823  0.41407756  1
  Zn  Zn4  1  0.74999954  0.69700666  0.21552463  1
  Zn  Zn5  1  0.24999985  0.30299266  0.78447540  1
  I  I6  1  0.74999954  0.87159615  0.94338731  1
  I  I7  1  0.24999985  0.12840317  0.05661272  1
  I  I8  1  0.74999954  0.91937111  0.36299954  1
  I  I9  1  0.24999985  0.08062821  0.63700049  1
  I  I10  1  0.00784296  0.47303480  0.27884952  1
  I  I11  1  0.50784265  0.52696453  0.72115051  1
  I  I12  1  0.99215643  0.52696453  0.72115051  1
  I  I13  1  0.49215674  0.47303480  0.27884952  1
