# generated using pymatgen
data_Sb2Pt3
_symmetry_space_group_name_H-M   'P 1'
_cell_length_a   7.02098926
_cell_length_b   7.02098926
_cell_length_c   7.02098926
_cell_angle_alpha   134.57379979
_cell_angle_beta   124.11278870
_cell_angle_gamma   74.77256716
_symmetry_Int_Tables_number   1
_chemical_formula_structural   Sb2Pt3
_chemical_formula_sum   'Sb4 Pt6'
_cell_volume   199.02374461
_cell_formula_units_Z   2
loop_
 _symmetry_equiv_pos_site_id
 _symmetry_equiv_pos_as_xyz
  1  'x, y, z'
loop_
 _atom_site_type_symbol
 _atom_site_label
 _atom_site_symmetry_multiplicity
 _atom_site_fract_x
 _atom_site_fract_y
 _atom_site_fract_z
 _atom_site_occupancy
  Sb  Sb0  1  0.60542710  0.84454272  0.76088326  1
  Sb  Sb1  1  0.39457291  0.15545697  0.23911594  1
  Sb  Sb2  1  0.08365897  0.34454247  0.73911538  1
  Sb  Sb3  1  0.91634104  0.65545722  0.26088382  1
  Pt  Pt4  1  -0.00000000  0.74999916  0.74999916  1
  Pt  Pt5  1  0.00000000  0.24999972  0.24999972  1
  Pt  Pt6  1  0.47961851  0.60900606  0.87061133  1
  Pt  Pt7  1  0.52038150  0.39099363  0.12938787  1
  Pt  Pt8  1  0.73839426  0.10900662  0.62938763  1
  Pt  Pt9  1  0.26160575  0.89099307  0.37061157  1
