# generated using pymatgen
data_Na2BeBi
_symmetry_space_group_name_H-M   'P 1'
_cell_length_a   3.69327343
_cell_length_b   3.69327343
_cell_length_c   7.85458916
_cell_angle_alpha   90.00000000
_cell_angle_beta   90.00000000
_cell_angle_gamma   90.00000000
_symmetry_Int_Tables_number   1
_chemical_formula_structural   Na2BeBi
_chemical_formula_sum   'Na2 Be1 Bi1'
_cell_volume   107.13870604
_cell_formula_units_Z   1
loop_
 _symmetry_equiv_pos_site_id
 _symmetry_equiv_pos_as_xyz
  1  'x, y, z'
loop_
 _atom_site_type_symbol
 _atom_site_label
 _atom_site_symmetry_multiplicity
 _atom_site_fract_x
 _atom_site_fract_y
 _atom_site_fract_z
 _atom_site_occupancy
  Na  Na0  1  0.00000000  -0.00000000  0.96469872  1
  Na  Na1  1  0.49999954  0.49999954  0.29251578  1
  Be  Be2  1  0.00000000  -0.00000000  0.55666111  1
  Bi  Bi3  1  0.49999954  0.49999954  0.68612465  1
