# generated using pymatgen
data_Tb3(CuGe)4
_symmetry_space_group_name_H-M   'P 1'
_cell_length_a   8.01485268
_cell_length_b   8.01485268
_cell_length_c   8.01485268
_cell_angle_alpha   149.57831395
_cell_angle_beta   130.99832440
_cell_angle_gamma   58.77775699
_symmetry_Int_Tables_number   1
_chemical_formula_structural   Tb3(CuGe)4
_chemical_formula_sum   'Tb3 Cu4 Ge4'
_cell_volume   195.24364765
_cell_formula_units_Z   1
loop_
 _symmetry_equiv_pos_site_id
 _symmetry_equiv_pos_as_xyz
  1  'x, y, z'
loop_
 _atom_site_type_symbol
 _atom_site_label
 _atom_site_symmetry_multiplicity
 _atom_site_fract_x
 _atom_site_fract_y
 _atom_site_fract_z
 _atom_site_occupancy
  Tb  Tb0  1  0.49999972  0.00000000  0.49999972  1
  Tb  Tb1  1  0.13081762  0.13081762  0.00000000  1
  Tb  Tb2  1  0.86918182  0.86918182  0.00000000  1
  Cu  Cu3  1  0.52143460  0.33207378  0.18936082  1
  Cu  Cu4  1  0.47856484  0.66792562  0.81063858  1
  Cu  Cu5  1  0.85728648  0.66792566  0.18936082  1
  Cu  Cu6  1  0.14271296  0.33207375  0.81063858  1
  Ge  Ge7  1  0.71652213  0.21652241  0.49999972  1
  Ge  Ge8  1  0.28347730  0.78347699  0.49999969  1
  Ge  Ge9  1  0.19165081  0.49999969  0.69165050  1
  Ge  Ge10  1  0.80834862  0.49999972  0.30834890  1
