# generated using pymatgen
data_YbIn2Rh
_symmetry_space_group_name_H-M   'P 1'
_cell_length_a   5.45157655
_cell_length_b   5.45157655
_cell_length_c   8.36591521
_cell_angle_alpha   90.00000000
_cell_angle_beta   90.00000000
_cell_angle_gamma   135.53771178
_symmetry_Int_Tables_number   1
_chemical_formula_structural   YbIn2Rh
_chemical_formula_sum   'Yb2 In4 Rh2'
_cell_volume   174.15197897
_cell_formula_units_Z   2
loop_
 _symmetry_equiv_pos_site_id
 _symmetry_equiv_pos_as_xyz
  1  'x, y, z'
loop_
 _atom_site_type_symbol
 _atom_site_label
 _atom_site_symmetry_multiplicity
 _atom_site_fract_x
 _atom_site_fract_y
 _atom_site_fract_z
 _atom_site_occupancy
  Yb  Yb0  1  0.06746819  0.93253118  0.75000043  1
  Yb  Yb1  1  0.93253118  0.06746819  0.25000014  1
  In  In2  1  0.35578729  0.64421208  0.95108327  1
  In  In3  1  0.64421208  0.35578729  0.45108298  1
  In  In4  1  0.35578729  0.64421208  0.54891759  1
  In  In5  1  0.64421208  0.35578729  0.04891730  1
  Rh  Rh6  1  0.78104824  0.21895113  0.75000043  1
  Rh  Rh7  1  0.21895113  0.78104824  0.25000014  1
