# generated using pymatgen
data_Ag2GePbS4
_symmetry_space_group_name_H-M   'P 1'
_cell_length_a   6.30355423
_cell_length_b   6.30355423
_cell_length_c   10.25382716
_cell_angle_alpha   90.00000000
_cell_angle_beta   90.00000000
_cell_angle_gamma   112.71206564
_symmetry_Int_Tables_number   1
_chemical_formula_structural   Ag2GePbS4
_chemical_formula_sum   'Ag4 Ge2 Pb2 S8'
_cell_volume   375.84001605
_cell_formula_units_Z   2
loop_
 _symmetry_equiv_pos_site_id
 _symmetry_equiv_pos_as_xyz
  1  'x, y, z'
loop_
 _atom_site_type_symbol
 _atom_site_label
 _atom_site_symmetry_multiplicity
 _atom_site_fract_x
 _atom_site_fract_y
 _atom_site_fract_z
 _atom_site_occupancy
  Ag  Ag0  1  0.41388251  0.64599631  0.09847856  1
  Ag  Ag1  1  0.64599631  0.41388251  0.90152172  1
  Ag  Ag2  1  0.64599631  0.41388251  0.59847869  1
  Ag  Ag3  1  0.41388251  0.64599631  0.40152158  1
  Ge  Ge4  1  0.67406681  0.27217000  0.25000007  1
  Ge  Ge5  1  0.27217000  0.67406681  0.75000021  1
  Pb  Pb6  1  0.01074150  0.01074150  0.00000000  1
  Pb  Pb7  1  0.01074150  0.01074150  0.50000014  1
  S  S8  1  0.02455055  0.25876237  0.25000007  1
  S  S9  1  0.25876237  0.02455055  0.75000021  1
  S  S10  1  0.72605628  0.64746259  0.25000007  1
  S  S11  1  0.64746259  0.72605628  0.75000021  1
  S  S12  1  0.48844517  0.09429886  0.43288489  1
  S  S13  1  0.09429886  0.48844517  0.56711539  1
  S  S14  1  0.09429886  0.48844517  0.93288502  1
  S  S15  1  0.48844517  0.09429886  0.06711525  1
