# generated using pymatgen
data_Ho3Al2
_symmetry_space_group_name_H-M   'P 1'
_cell_length_a   8.15659767
_cell_length_b   8.15659767
_cell_length_c   7.51724759
_cell_angle_alpha   90.00000000
_cell_angle_beta   90.00000000
_cell_angle_gamma   90.00000000
_symmetry_Int_Tables_number   1
_chemical_formula_structural   Ho3Al2
_chemical_formula_sum   'Ho12 Al8'
_cell_volume   500.12312563
_cell_formula_units_Z   4
loop_
 _symmetry_equiv_pos_site_id
 _symmetry_equiv_pos_as_xyz
  1  'x, y, z'
loop_
 _atom_site_type_symbol
 _atom_site_label
 _atom_site_symmetry_multiplicity
 _atom_site_fract_x
 _atom_site_fract_y
 _atom_site_fract_z
 _atom_site_occupancy
  Ho  Ho0  1  0.00000000  0.50000014  0.50619493  1
  Ho  Ho1  1  0.79703218  0.79703218  0.75619491  1
  Ho  Ho2  1  0.20296811  0.20296811  0.75619491  1
  Ho  Ho3  1  0.65009919  0.34990110  0.75619754  1
  Ho  Ho4  1  0.34990110  0.65009919  0.75619754  1
  Ho  Ho5  1  0.84990124  0.84990124  0.25619738  1
  Ho  Ho6  1  0.15009904  0.15009904  0.25619738  1
  Ho  Ho7  1  0.50000014  0.00000000  0.00619477  1
  Ho  Ho8  1  0.50000014  0.00000000  0.50619493  1
  Ho  Ho9  1  0.70296825  0.29703203  0.25619475  1
  Ho  Ho10  1  0.00000000  0.50000014  0.00619477  1
  Ho  Ho11  1  0.29703203  0.70296825  0.25619475  1
  Al  Al12  1  0.88072915  0.11927113  0.95132255  1
  Al  Al13  1  0.11927113  0.88072915  0.95132255  1
  Al  Al14  1  0.61927127  0.61927127  0.45132239  1
  Al  Al15  1  0.38072901  0.38072901  0.45132239  1
  Al  Al16  1  0.88072755  0.11927274  0.56109120  1
  Al  Al17  1  0.11927274  0.88072755  0.56109120  1
  Al  Al18  1  0.61927288  0.61927288  0.06109104  1
  Al  Al19  1  0.38072740  0.38072740  0.06109104  1
