# generated using pymatgen
data_CaPt2
_symmetry_space_group_name_H-M   'P 1'
_cell_length_a   5.43485110
_cell_length_b   5.43485001
_cell_length_c   8.96903563
_cell_angle_alpha   90.00000000
_cell_angle_beta   90.00000000
_cell_angle_gamma   120.00000663
_symmetry_Int_Tables_number   1
_chemical_formula_structural   CaPt2
_chemical_formula_sum   'Ca4 Pt8'
_cell_volume   229.43071826
_cell_formula_units_Z   4
loop_
 _symmetry_equiv_pos_site_id
 _symmetry_equiv_pos_as_xyz
  1  'x, y, z'
loop_
 _atom_site_type_symbol
 _atom_site_label
 _atom_site_symmetry_multiplicity
 _atom_site_fract_x
 _atom_site_fract_y
 _atom_site_fract_z
 _atom_site_occupancy
  Ca  Ca0  1  0.66666782  0.33333534  0.06500299  1
  Ca  Ca1  1  0.33333211  0.66666473  0.56500323  1
  Ca  Ca2  1  0.33333211  0.66666473  0.93499750  1
  Ca  Ca3  1  0.66666782  0.33333534  0.43499726  1
  Pt  Pt4  1  0.00000000  0.00000000  0.00000000  1
  Pt  Pt5  1  0.00000000  0.00000000  0.50000024  1
  Pt  Pt6  1  0.66171890  0.83086391  0.25000012  1
  Pt  Pt7  1  0.16914421  0.83086355  0.25000012  1
  Pt  Pt8  1  0.16914423  0.33828872  0.25000012  1
  Pt  Pt9  1  0.33828103  0.16913616  0.75000037  1
  Pt  Pt10  1  0.83085573  0.16913651  0.75000037  1
  Pt  Pt11  1  0.83085570  0.66171134  0.75000037  1
