# generated using pymatgen
data_Cu3Sb
_symmetry_space_group_name_H-M   'P 1'
_cell_length_a   4.23952732
_cell_length_b   5.30085357
_cell_length_c   5.42647281
_cell_angle_alpha   90.00000000
_cell_angle_beta   90.00000000
_cell_angle_gamma   90.00000000
_symmetry_Int_Tables_number   1
_chemical_formula_structural   Cu3Sb
_chemical_formula_sum   'Cu6 Sb2'
_cell_volume   121.94973945
_cell_formula_units_Z   2
loop_
 _symmetry_equiv_pos_site_id
 _symmetry_equiv_pos_as_xyz
  1  'x, y, z'
loop_
 _atom_site_type_symbol
 _atom_site_label
 _atom_site_symmetry_multiplicity
 _atom_site_fract_x
 _atom_site_fract_y
 _atom_site_fract_z
 _atom_site_occupancy
  Cu  Cu0  1  0.75000047  0.76391932  0.74999961  1
  Cu  Cu1  1  0.25000016  0.23608001  0.24999987  1
  Cu  Cu2  1  0.25000016  0.64306207  -0.00509168  1
  Cu  Cu3  1  0.25000016  0.64306207  0.50509142  1
  Cu  Cu4  1  0.75000047  0.35693726  0.00509168  1
  Cu  Cu5  1  0.75000047  0.35693726  0.49490806  1
  Sb  Sb6  1  0.75000047  0.85079147  0.24999987  1
  Sb  Sb7  1  0.25000016  0.14920786  0.74999961  1
