# generated using pymatgen
data_Tc2AsPt
_symmetry_space_group_name_H-M   'P 1'
_cell_length_a   4.44568304
_cell_length_b   4.44568304
_cell_length_c   4.44568304
_cell_angle_alpha   60.00000000
_cell_angle_beta   60.00000000
_cell_angle_gamma   60.00000000
_symmetry_Int_Tables_number   1
_chemical_formula_structural   Tc2AsPt
_chemical_formula_sum   'Tc2 As1 Pt1'
_cell_volume   62.12987648
_cell_formula_units_Z   1
loop_
 _symmetry_equiv_pos_site_id
 _symmetry_equiv_pos_as_xyz
  1  'x, y, z'
loop_
 _atom_site_type_symbol
 _atom_site_label
 _atom_site_symmetry_multiplicity
 _atom_site_fract_x
 _atom_site_fract_y
 _atom_site_fract_z
 _atom_site_occupancy
  Tc  Tc0  1  0.00000000  0.00000000  0.00000000  1
  Tc  Tc1  1  0.24999979  0.24999979  0.24999979  1
  As  As2  1  0.49999958  0.49999958  0.49999958  1
  Pt  Pt3  1  0.74999937  0.74999937  0.74999937  1
