# generated using pymatgen
data_GeO2
_symmetry_space_group_name_H-M   'P 1'
_cell_length_a   2.91084146
_cell_length_b   4.45688106
_cell_length_c   4.45719453
_cell_angle_alpha   90.00000000
_cell_angle_beta   90.00000000
_cell_angle_gamma   90.00000000
_symmetry_Int_Tables_number   1
_chemical_formula_structural   GeO2
_chemical_formula_sum   'Ge2 O4'
_cell_volume   57.82440667
_cell_formula_units_Z   2
loop_
 _symmetry_equiv_pos_site_id
 _symmetry_equiv_pos_as_xyz
  1  'x, y, z'
loop_
 _atom_site_type_symbol
 _atom_site_label
 _atom_site_symmetry_multiplicity
 _atom_site_fract_x
 _atom_site_fract_y
 _atom_site_fract_z
 _atom_site_occupancy
  Ge  Ge0  1  0.00000000  0.00000000  0.00000000  1
  Ge  Ge1  1  0.49999975  0.49999988  0.49999949  1
  O  O2  1  0.00000000  0.69382528  0.30616930  1
  O  O3  1  0.00000000  0.30617449  0.69382968  1
  O  O4  1  0.49999975  0.19382539  0.19383019  1
  O  O5  1  0.49999975  0.80617437  0.80616879  1
