# generated using pymatgen
data_Ca(Al2Fe)4
_symmetry_space_group_name_H-M   'P 1'
_cell_length_a   6.63473278
_cell_length_b   6.63473278
_cell_length_c   6.63473278
_cell_angle_alpha   98.35092486
_cell_angle_beta   98.35092486
_cell_angle_gamma   135.19658348
_symmetry_Int_Tables_number   1
_chemical_formula_structural   Ca(Al2Fe)4
_chemical_formula_sum   'Ca1 Al8 Fe4'
_cell_volume   190.27569279
_cell_formula_units_Z   1
loop_
 _symmetry_equiv_pos_site_id
 _symmetry_equiv_pos_as_xyz
  1  'x, y, z'
loop_
 _atom_site_type_symbol
 _atom_site_label
 _atom_site_symmetry_multiplicity
 _atom_site_fract_x
 _atom_site_fract_y
 _atom_site_fract_z
 _atom_site_occupancy
  Ca  Ca0  1  0.00000000  0.00000000  0.00000000  1
  Al  Al1  1  0.33674824  -0.00000000  0.33674824  1
  Al  Al2  1  0.66325138  0.00000000  0.66325138  1
  Al  Al3  1  0.00000000  0.66325138  0.66325138  1
  Al  Al4  1  -0.00000000  0.33674824  0.33674824  1
  Al  Al5  1  0.27473256  0.49999981  0.77473237  1
  Al  Al6  1  0.72526666  0.49999941  0.22526725  1
  Al  Al7  1  0.49999941  0.72526666  0.22526725  1
  Al  Al8  1  0.49999981  0.27473256  0.77473237  1
  Fe  Fe9  1  0.49999961  -0.00000020  0.00000000  1
  Fe  Fe10  1  -0.00000020  0.49999961  0.00000000  1
  Fe  Fe11  1  0.00000020  0.00000020  0.49999981  1
  Fe  Fe12  1  0.49999961  0.49999961  0.49999981  1
