# generated using pymatgen
data_Tb5Sb3
_symmetry_space_group_name_H-M   'P 1'
_cell_length_a   9.01724380
_cell_length_b   9.01723259
_cell_length_c   6.29056138
_cell_angle_alpha   90.00000000
_cell_angle_beta   90.00000000
_cell_angle_gamma   120.00004114
_symmetry_Int_Tables_number   1
_chemical_formula_structural   Tb5Sb3
_chemical_formula_sum   'Tb10 Sb6'
_cell_volume   442.96247800
_cell_formula_units_Z   2
loop_
 _symmetry_equiv_pos_site_id
 _symmetry_equiv_pos_as_xyz
  1  'x, y, z'
loop_
 _atom_site_type_symbol
 _atom_site_label
 _atom_site_symmetry_multiplicity
 _atom_site_fract_x
 _atom_site_fract_y
 _atom_site_fract_z
 _atom_site_occupancy
  Tb  Tb0  1  0.00000015  0.75350187  0.24999995  1
  Tb  Tb1  1  0.24649852  0.24649831  0.24999995  1
  Tb  Tb2  1  0.75349874  -0.00000005  0.24999995  1
  Tb  Tb3  1  0.99999915  0.24649826  0.74999984  1
  Tb  Tb4  1  0.75350078  0.75350182  0.74999984  1
  Tb  Tb5  1  0.24650091  -0.00000002  0.74999984  1
  Tb  Tb6  1  0.66666689  0.33333450  0.00000000  1
  Tb  Tb7  1  0.33333241  0.66666563  0.49999989  1
  Tb  Tb8  1  0.33333241  0.66666563  0.00000000  1
  Tb  Tb9  1  0.66666689  0.33333450  0.49999989  1
  Sb  Sb10  1  0.99999932  0.38770041  0.24999995  1
  Sb  Sb11  1  0.61229897  0.61229967  0.24999995  1
  Sb  Sb12  1  0.38770119  -0.00000003  0.24999995  1
  Sb  Sb13  1  -0.00000002  0.61229971  0.74999984  1
  Sb  Sb14  1  0.38770033  0.38770046  0.74999984  1
  Sb  Sb15  1  0.61229846  -0.00000004  0.74999984  1
