# generated using pymatgen
data_BePPb
_symmetry_space_group_name_H-M   'P 1'
_cell_length_a   6.22834344
_cell_length_b   6.22834344
_cell_length_c   6.22834344
_cell_angle_alpha   149.94236426
_cell_angle_beta   149.94236426
_cell_angle_gamma   43.02601237
_symmetry_Int_Tables_number   1
_chemical_formula_structural   BePPb
_chemical_formula_sum   'Be1 P1 Pb1'
_cell_volume   60.45579731
_cell_formula_units_Z   1
loop_
 _symmetry_equiv_pos_site_id
 _symmetry_equiv_pos_as_xyz
  1  'x, y, z'
loop_
 _atom_site_type_symbol
 _atom_site_label
 _atom_site_symmetry_multiplicity
 _atom_site_fract_x
 _atom_site_fract_y
 _atom_site_fract_z
 _atom_site_occupancy
  Be  Be0  1  0.91600269  0.91600269  0.00000000  1
  P  P1  1  0.42252195  0.42252195  0.00000000  1
  Pb  Pb2  1  0.66147473  0.66147473  0.00000000  1
