# generated using pymatgen
data_Fe2P
_symmetry_space_group_name_H-M   'P 1'
_cell_length_a   5.77683100
_cell_length_b   5.77692060
_cell_length_c   3.44901686
_cell_angle_alpha   90.00000000
_cell_angle_beta   90.00000000
_cell_angle_gamma   120.00051310
_symmetry_Int_Tables_number   1
_chemical_formula_structural   Fe2P
_chemical_formula_sum   'Fe6 P3'
_cell_volume   99.68039834
_cell_formula_units_Z   3
loop_
 _symmetry_equiv_pos_site_id
 _symmetry_equiv_pos_as_xyz
  1  'x, y, z'
loop_
 _atom_site_type_symbol
 _atom_site_label
 _atom_site_symmetry_multiplicity
 _atom_site_fract_x
 _atom_site_fract_y
 _atom_site_fract_z
 _atom_site_occupancy
  Fe  Fe0  1  0.74242074  0.74241610  0.00000000  1
  Fe  Fe1  1  0.25757928  -0.00000446  0.00000000  1
  Fe  Fe2  1  -0.00000001  0.25759531  0.00000000  1
  Fe  Fe3  1  0.40723296  0.40722780  0.50000046  1
  Fe  Fe4  1  0.59276708  -0.00000519  0.50000046  1
  Fe  Fe5  1  -0.00000003  0.59278333  0.50000046  1
  P  P6  1  0.33333228  0.66666095  0.00000000  1
  P  P7  1  0.66666772  0.33332858  0.00000000  1
  P  P8  1  0.00000000  -0.00000346  0.50000046  1
