# generated using pymatgen
data_LaAlO3
_symmetry_space_group_name_H-M   'P 1'
_cell_length_a   5.38062383
_cell_length_b   5.38201835
_cell_length_c   5.38200168
_cell_angle_alpha   60.23044121
_cell_angle_beta   60.00830401
_cell_angle_gamma   60.00868707
_symmetry_Int_Tables_number   1
_chemical_formula_structural   LaAlO3
_chemical_formula_sum   'La2 Al2 O6'
_cell_volume   110.41122609
_cell_formula_units_Z   2
loop_
 _symmetry_equiv_pos_site_id
 _symmetry_equiv_pos_as_xyz
  1  'x, y, z'
loop_
 _atom_site_type_symbol
 _atom_site_label
 _atom_site_symmetry_multiplicity
 _atom_site_fract_x
 _atom_site_fract_y
 _atom_site_fract_z
 _atom_site_occupancy
  La  La0  1  0.74998472  0.75080316  0.24921192  1
  La  La1  1  0.25001605  0.24919670  0.75078798  1
  Al  Al2  1  -0.00000000  0.00000036  0.50000027  1
  Al  Al3  1  0.50000039  0.49999957  -0.00000031  1
  O  O4  1  0.77058768  0.22939648  0.22941347  1
  O  O5  1  0.72938637  0.77061560  0.77059868  1
  O  O6  1  0.22941310  0.77060337  0.77058643  1
  O  O7  1  0.27061440  0.22938425  0.22940123  1
  O  O8  1  0.74999852  0.29022337  0.70977946  1
  O  O9  1  0.25000225  0.70977649  0.29022044  1
