# generated using pymatgen
data_Li3Al(BO3)2
_symmetry_space_group_name_H-M   'P 1'
_cell_length_a   4.90573160
_cell_length_b   6.15776688
_cell_length_c   7.88576259
_cell_angle_alpha   75.02536464
_cell_angle_beta   89.45538737
_cell_angle_gamma   89.63540196
_symmetry_Int_Tables_number   1
_chemical_formula_structural   Li3Al(BO3)2
_chemical_formula_sum   'Li6 Al2 B4 O12'
_cell_volume   230.11387244
_cell_formula_units_Z   2
loop_
 _symmetry_equiv_pos_site_id
 _symmetry_equiv_pos_as_xyz
  1  'x, y, z'
loop_
 _atom_site_type_symbol
 _atom_site_label
 _atom_site_symmetry_multiplicity
 _atom_site_fract_x
 _atom_site_fract_y
 _atom_site_fract_z
 _atom_site_occupancy
  Li  Li0  1  0.67981739  0.39492715  0.42805762  1
  Li  Li1  1  0.32018266  0.60507458  0.57194153  1
  Li  Li2  1  0.17534534  0.46966298  0.23836270  1
  Li  Li3  1  0.82465471  0.53033875  0.76163644  1
  Li  Li4  1  0.83167577  0.23668200  0.11136368  1
  Li  Li5  1  0.16832428  0.76331973  0.88863547  1
  Al  Al6  1  0.65059420  0.05182174  0.77159920  1
  Al  Al7  1  0.34940585  0.94817998  0.22839995  1
  B  B8  1  0.65968725  0.67732042  0.07081114  1
  B  B9  1  0.34031280  0.32268130  0.92918801  1
  B  B10  1  0.16490018  0.17255527  0.58846851  1
  B  B11  1  0.83509987  0.82744646  0.41153063  1
  O  O12  1  0.31010600  0.01305473  0.71575509  1
  O  O13  1  0.77564581  0.79313408  0.90916970  1
  O  O14  1  0.22435424  0.20686765  0.09082945  1
  O  O15  1  0.88028800  0.16362257  0.60086122  1
  O  O16  1  0.11971205  0.83637916  0.39913792  1
  O  O17  1  0.29403554  0.33501311  0.46615555  1
  O  O18  1  0.70596451  0.66498862  0.53384360  1
  O  O19  1  0.79227034  0.50931123  0.18272167  1
  O  O20  1  0.20772971  0.49069049  0.81727748  1
  O  O21  1  0.38848184  0.74005767  0.10400854  1
  O  O22  1  0.61151821  0.25994405  0.89599061  1
  O  O23  1  0.68989421  -0.01305400  0.28424463  1
