# generated using pymatgen
data_Ca2BeIn
_symmetry_space_group_name_H-M   'P 1'
_cell_length_a   5.21675916
_cell_length_b   5.21675916
_cell_length_c   5.21675916
_cell_angle_alpha   120.00098782
_cell_angle_beta   120.00098782
_cell_angle_gamma   89.99828906
_symmetry_Int_Tables_number   1
_chemical_formula_structural   Ca2BeIn
_chemical_formula_sum   'Ca2 Be1 In1'
_cell_volume   100.38778702
_cell_formula_units_Z   1
loop_
 _symmetry_equiv_pos_site_id
 _symmetry_equiv_pos_as_xyz
  1  'x, y, z'
loop_
 _atom_site_type_symbol
 _atom_site_label
 _atom_site_symmetry_multiplicity
 _atom_site_fract_x
 _atom_site_fract_y
 _atom_site_fract_z
 _atom_site_occupancy
  Ca  Ca0  1  0.00000000  0.00000000  0.00000000  1
  Ca  Ca1  1  0.49999988  0.49999988  0.00000000  1
  Be  Be2  1  0.74999982  0.24999994  0.49999988  1
  In  In3  1  0.24999994  0.74999982  0.49999988  1
