# generated using pymatgen
data_BeGaSi2
_symmetry_space_group_name_H-M   'P 1'
_cell_length_a   4.59684377
_cell_length_b   4.59684377
_cell_length_c   4.59684377
_cell_angle_alpha   128.50965950
_cell_angle_beta   128.50965950
_cell_angle_gamma   75.80084221
_symmetry_Int_Tables_number   1
_chemical_formula_structural   BeGaSi2
_chemical_formula_sum   'Be1 Ga1 Si2'
_cell_volume   57.84666584
_cell_formula_units_Z   1
loop_
 _symmetry_equiv_pos_site_id
 _symmetry_equiv_pos_as_xyz
  1  'x, y, z'
loop_
 _atom_site_type_symbol
 _atom_site_label
 _atom_site_symmetry_multiplicity
 _atom_site_fract_x
 _atom_site_fract_y
 _atom_site_fract_z
 _atom_site_occupancy
  Be  Be0  1  0.50000062  0.50000062  0.00000000  1
  Ga  Ga1  1  0.75000082  0.25000031  0.50000051  1
  Si  Si2  1  0.00000000  0.00000000  0.00000000  1
  Si  Si3  1  0.25000031  0.75000082  0.50000051  1
