# generated using pymatgen
data_LaCl3
_symmetry_space_group_name_H-M   'P 1'
_cell_length_a   7.46450327
_cell_length_b   7.46450539
_cell_length_c   4.37558857
_cell_angle_alpha   90.00000000
_cell_angle_beta   90.00000000
_cell_angle_gamma   120.00001017
_symmetry_Int_Tables_number   1
_chemical_formula_structural   LaCl3
_chemical_formula_sum   'La2 Cl6'
_cell_volume   211.13926946
_cell_formula_units_Z   2
loop_
 _symmetry_equiv_pos_site_id
 _symmetry_equiv_pos_as_xyz
  1  'x, y, z'
loop_
 _atom_site_type_symbol
 _atom_site_label
 _atom_site_symmetry_multiplicity
 _atom_site_fract_x
 _atom_site_fract_y
 _atom_site_fract_z
 _atom_site_occupancy
  La  La0  1  0.33333202  0.66666516  0.25000008  1
  La  La1  1  0.66666749  0.33333448  0.75000025  1
  Cl  Cl2  1  0.38458341  0.29885968  0.25000008  1
  Cl  Cl3  1  0.70114054  0.08572489  0.25000008  1
  Cl  Cl4  1  0.91427533  0.61541509  0.25000008  1
  Cl  Cl5  1  0.61541610  0.70113995  0.75000025  1
  Cl  Cl6  1  0.29885897  0.91427474  0.75000025  1
  Cl  Cl7  1  0.08572419  0.38458455  0.75000025  1
