# generated using pymatgen
data_BeV2Os
_symmetry_space_group_name_H-M   'P 1'
_cell_length_a   4.68910249
_cell_length_b   4.68910249
_cell_length_c   4.68910249
_cell_angle_alpha   135.04143999
_cell_angle_beta   135.04143999
_cell_angle_gamma   65.46581791
_symmetry_Int_Tables_number   1
_chemical_formula_structural   BeV2Os
_chemical_formula_sum   'Be1 V2 Os1'
_cell_volume   50.71649283
_cell_formula_units_Z   1
loop_
 _symmetry_equiv_pos_site_id
 _symmetry_equiv_pos_as_xyz
  1  'x, y, z'
loop_
 _atom_site_type_symbol
 _atom_site_label
 _atom_site_symmetry_multiplicity
 _atom_site_fract_x
 _atom_site_fract_y
 _atom_site_fract_z
 _atom_site_occupancy
  Be  Be0  1  0.49999941  0.49999941  0.00000000  1
  V  V1  1  0.00000000  0.00000000  0.00000000  1
  V  V2  1  0.24999971  0.75000108  0.50000138  1
  Os  Os3  1  0.75000108  0.24999971  0.50000138  1
