# generated using pymatgen
data_YAlPd
_symmetry_space_group_name_H-M   'P 1'
_cell_length_a   4.43885526
_cell_length_b   6.93814272
_cell_length_c   7.74526511
_cell_angle_alpha   90.00000000
_cell_angle_beta   90.00000000
_cell_angle_gamma   90.00000000
_symmetry_Int_Tables_number   1
_chemical_formula_structural   YAlPd
_chemical_formula_sum   'Y4 Al4 Pd4'
_cell_volume   238.53411520
_cell_formula_units_Z   4
loop_
 _symmetry_equiv_pos_site_id
 _symmetry_equiv_pos_as_xyz
  1  'x, y, z'
loop_
 _atom_site_type_symbol
 _atom_site_label
 _atom_site_symmetry_multiplicity
 _atom_site_fract_x
 _atom_site_fract_y
 _atom_site_fract_z
 _atom_site_occupancy
  Y  Y0  1  0.25000027  0.02855648  0.31707912  1
  Y  Y1  1  0.75000080  0.47144333  0.81707944  1
  Y  Y2  1  0.75000080  0.97144313  0.68292151  1
  Y  Y3  1  0.25000027  0.52855628  0.18292119  1
  Al  Al4  1  0.25000027  0.14968446  0.93416875  1
  Al  Al5  1  0.75000080  0.35031535  0.43416843  1
  Al  Al6  1  0.75000080  0.85031515  0.06583188  1
  Al  Al7  1  0.25000027  0.64968426  0.56583220  1
  Pd  Pd8  1  0.25000027  0.27539915  0.61288659  1
  Pd  Pd9  1  0.75000080  0.22460066  0.11288628  1
  Pd  Pd10  1  0.75000080  0.72460046  0.38711404  1
  Pd  Pd11  1  0.25000027  0.77539895  0.88711435  1
