# generated using pymatgen
data_CaBeTc2
_symmetry_space_group_name_H-M   'P 1'
_cell_length_a   4.43069377
_cell_length_b   4.43069377
_cell_length_c   4.43069377
_cell_angle_alpha   120.00435938
_cell_angle_beta   120.00435938
_cell_angle_gamma   89.99244951
_symmetry_Int_Tables_number   1
_chemical_formula_structural   CaBeTc2
_chemical_formula_sum   'Ca1 Be1 Tc2'
_cell_volume   61.49949999
_cell_formula_units_Z   1
loop_
 _symmetry_equiv_pos_site_id
 _symmetry_equiv_pos_as_xyz
  1  'x, y, z'
loop_
 _atom_site_type_symbol
 _atom_site_label
 _atom_site_symmetry_multiplicity
 _atom_site_fract_x
 _atom_site_fract_y
 _atom_site_fract_z
 _atom_site_occupancy
  Ca  Ca0  1  0.74999979  0.25000000  0.49999979  1
  Be  Be1  1  0.49999999  0.49999999  0.00000000  1
  Tc  Tc2  1  0.00000000  0.00000000  0.00000000  1
  Tc  Tc3  1  0.25000000  0.74999979  0.49999979  1
