# generated using pymatgen
data_Fe3C
_symmetry_space_group_name_H-M   'P 1'
_cell_length_a   6.27539531
_cell_length_b   6.27539531
_cell_length_c   6.27539531
_cell_angle_alpha   96.43596801
_cell_angle_beta   96.43596801
_cell_angle_gamma   140.87893494
_symmetry_Int_Tables_number   1
_chemical_formula_structural   Fe3C
_chemical_formula_sum   'Fe12 C4'
_cell_volume   146.92971548
_cell_formula_units_Z   4
loop_
 _symmetry_equiv_pos_site_id
 _symmetry_equiv_pos_as_xyz
  1  'x, y, z'
loop_
 _atom_site_type_symbol
 _atom_site_label
 _atom_site_symmetry_multiplicity
 _atom_site_fract_x
 _atom_site_fract_y
 _atom_site_fract_z
 _atom_site_occupancy
  Fe  Fe0  1  0.60781055  0.74999829  0.85780668  1
  Fe  Fe1  1  0.89219255  0.75000458  0.14219424  1
  Fe  Fe2  1  0.24999616  0.39219040  0.14218797  1
  Fe  Fe3  1  0.25000263  0.10780816  0.85781295  1
  Fe  Fe4  1  0.75088131  0.85577027  0.50000323  1
  Fe  Fe5  1  0.35576724  0.25087805  0.49999769  1
  Fe  Fe6  1  0.74912266  0.24911943  0.10488896  1
  Fe  Fe7  1  0.14423067  0.64423368  0.89511196  1
  Fe  Fe8  1  0.91873611  0.61214522  0.49999279  1
  Fe  Fe9  1  0.11215263  0.41874329  0.50000813  1
  Fe  Fe10  1  0.58125763  0.08126461  0.69341003  1
  Fe  Fe11  1  0.38785552  0.88784831  0.30659089  1
  C  C12  1  0.74998970  0.54057724  0.79057735  1
  C  C13  1  0.75000084  0.95941307  0.20942357  1
  C  C14  1  0.04058787  0.25001122  0.79058869  1
  C  C15  1  0.45942347  0.24999990  0.20941223  1
