# generated using pymatgen
data_CaZrBe
_symmetry_space_group_name_H-M   'P 1'
_cell_length_a   6.59392707
_cell_length_b   6.59392707
_cell_length_c   6.59392707
_cell_angle_alpha   151.34750165
_cell_angle_beta   151.34750165
_cell_angle_gamma   40.96694102
_symmetry_Int_Tables_number   1
_chemical_formula_structural   CaZrBe
_chemical_formula_sum   'Ca1 Zr1 Be1'
_cell_volume   65.77743667
_cell_formula_units_Z   1
loop_
 _symmetry_equiv_pos_site_id
 _symmetry_equiv_pos_as_xyz
  1  'x, y, z'
loop_
 _atom_site_type_symbol
 _atom_site_label
 _atom_site_symmetry_multiplicity
 _atom_site_fract_x
 _atom_site_fract_y
 _atom_site_fract_z
 _atom_site_occupancy
  Ca  Ca0  1  0.35511522  0.35511522  0.00000000  1
  Zr  Zr1  1  0.62548782  0.62548782  0.00000000  1
  Be  Be2  1  0.01939731  0.01939731  0.00000000  1
