# generated using pymatgen
data_Y2(NiB2)3
_symmetry_space_group_name_H-M   'P 1'
_cell_length_a   5.80305562
_cell_length_b   5.80305562
_cell_length_c   3.49804964
_cell_angle_alpha   90.00000000
_cell_angle_beta   90.00000000
_cell_angle_gamma   96.57028738
_symmetry_Int_Tables_number   1
_chemical_formula_structural   Y2(NiB2)3
_chemical_formula_sum   'Y2 Ni3 B6'
_cell_volume   117.02473924
_cell_formula_units_Z   1
loop_
 _symmetry_equiv_pos_site_id
 _symmetry_equiv_pos_as_xyz
  1  'x, y, z'
loop_
 _atom_site_type_symbol
 _atom_site_label
 _atom_site_symmetry_multiplicity
 _atom_site_fract_x
 _atom_site_fract_y
 _atom_site_fract_z
 _atom_site_occupancy
  Y  Y0  1  0.72466504  0.27533443  0.00000000  1
  Y  Y1  1  0.27533443  0.72466504  0.00000000  1
  Ni  Ni2  1  0.00000000  0.00000000  0.50000005  1
  Ni  Ni3  1  0.22689535  0.22689535  0.00000000  1
  Ni  Ni4  1  0.77310412  0.77310412  0.00000000  1
  B  B5  1  0.08676581  0.38829762  0.50000005  1
  B  B6  1  0.91323366  0.61170185  0.50000005  1
  B  B7  1  0.61170185  0.91323366  0.50000005  1
  B  B8  1  0.38829762  0.08676581  0.50000005  1
  B  B9  1  0.38659009  0.38659009  0.50000005  1
  B  B10  1  0.61340937  0.61340937  0.50000005  1
