# generated using pymatgen
data_TaZn2
_symmetry_space_group_name_H-M   'P 1'
_cell_length_a   5.05726887
_cell_length_b   5.05726887
_cell_length_c   8.08510263
_cell_angle_alpha   90.00000000
_cell_angle_beta   90.00000000
_cell_angle_gamma   120.00024417
_symmetry_Int_Tables_number   1
_chemical_formula_structural   TaZn2
_chemical_formula_sum   'Ta4 Zn8'
_cell_volume   179.08004164
_cell_formula_units_Z   4
loop_
 _symmetry_equiv_pos_site_id
 _symmetry_equiv_pos_as_xyz
  1  'x, y, z'
loop_
 _atom_site_type_symbol
 _atom_site_label
 _atom_site_symmetry_multiplicity
 _atom_site_fract_x
 _atom_site_fract_y
 _atom_site_fract_z
 _atom_site_occupancy
  Ta  Ta0  1  0.33333283  0.66666911  0.06868764  1
  Ta  Ta1  1  0.66666911  0.33333283  0.56868747  1
  Ta  Ta2  1  0.66666911  0.33333283  0.93131204  1
  Ta  Ta3  1  0.33333283  0.66666911  0.43131220  1
  Zn  Zn4  1  0.00000000  0.00000000  0.00000000  1
  Zn  Zn5  1  0.00000000  0.00000000  0.49999984  1
  Zn  Zn6  1  0.82720818  0.65442244  0.24999992  1
  Zn  Zn7  1  0.34557950  0.17279376  0.24999992  1
  Zn  Zn8  1  0.82720961  0.17279233  0.24999992  1
  Zn  Zn9  1  0.17279376  0.34557950  0.74999976  1
  Zn  Zn10  1  0.65442244  0.82720818  0.74999976  1
  Zn  Zn11  1  0.17279233  0.82720961  0.74999976  1
