# generated using pymatgen
data_TlTe
_symmetry_space_group_name_H-M   'P 1'
_cell_length_a   9.80504428
_cell_length_b   9.80504428
_cell_length_c   9.80504428
_cell_angle_alpha   95.82968288
_cell_angle_beta   95.82968288
_cell_angle_gamma   142.83097043
_symmetry_Int_Tables_number   1
_chemical_formula_structural   TlTe
_chemical_formula_sum   'Tl8 Te8'
_cell_volume   539.81935267
_cell_formula_units_Z   8
loop_
 _symmetry_equiv_pos_site_id
 _symmetry_equiv_pos_as_xyz
  1  'x, y, z'
loop_
 _atom_site_type_symbol
 _atom_site_label
 _atom_site_symmetry_multiplicity
 _atom_site_fract_x
 _atom_site_fract_y
 _atom_site_fract_z
 _atom_site_occupancy
  Tl  Tl0  1  0.72883497  0.57903096  0.30786544  1
  Tl  Tl1  1  0.27116543  0.42096944  0.69213487  1
  Tl  Tl2  1  0.57903087  0.27116543  0.85019629  1
  Tl  Tl3  1  0.42096953  0.72883497  0.14980401  1
  Tl  Tl4  1  0.77116558  0.07903071  0.85019629  1
  Tl  Tl5  1  0.22883482  0.92096969  0.14980401  1
  Tl  Tl6  1  0.92096969  0.77116567  0.69213487  1
  Tl  Tl7  1  0.07903071  0.22883473  0.30786544  1
  Te  Te8  1  0.83597598  0.33597583  0.17195131  1
  Te  Te9  1  0.16402442  0.66402457  0.82804900  1
  Te  Te10  1  0.33597573  0.16402442  0.50000015  1
  Te  Te11  1  0.66402467  0.83597598  0.50000015  1
  Te  Te12  1  0.50000015  0.00000000  0.50000015  1
  Te  Te13  1  0.00000000  0.50000015  0.50000015  1
  Te  Te14  1  0.25000012  0.25000012  0.00000000  1
  Te  Te15  1  0.75000037  0.75000037  0.00000000  1
