# generated using pymatgen
data_CdHOF
_symmetry_space_group_name_H-M   'P 1'
_cell_length_a   4.82309790
_cell_length_b   5.63225246
_cell_length_c   6.91519853
_cell_angle_alpha   90.00000000
_cell_angle_beta   90.00000000
_cell_angle_gamma   90.00000000
_symmetry_Int_Tables_number   1
_chemical_formula_structural   CdHOF
_chemical_formula_sum   'Cd4 H4 O4 F4'
_cell_volume   187.85071116
_cell_formula_units_Z   4
loop_
 _symmetry_equiv_pos_site_id
 _symmetry_equiv_pos_as_xyz
  1  'x, y, z'
loop_
 _atom_site_type_symbol
 _atom_site_label
 _atom_site_symmetry_multiplicity
 _atom_site_fract_x
 _atom_site_fract_y
 _atom_site_fract_z
 _atom_site_occupancy
  Cd  Cd0  1  0.51636367  0.23225998  0.37604781  1
  Cd  Cd1  1  0.48363677  0.26773980  0.87604792  1
  Cd  Cd2  1  0.01636345  0.76773958  0.12395230  1
  Cd  Cd3  1  0.98363698  0.73225977  0.62395240  1
  H  H4  1  0.07488000  0.23555822  0.13265336  1
  H  H5  1  0.92512043  0.26444156  0.63265347  1
  H  H6  1  0.57488022  0.76444134  0.36734675  1
  H  H7  1  0.42512022  0.73555800  0.86734685  1
  O  O8  1  0.23794876  0.12796087  0.12833851  1
  O  O9  1  0.76205168  0.37203891  0.62833862  1
  O  O10  1  0.73794898  0.87203869  0.37166160  1
  O  O11  1  0.26205146  0.62796066  0.87166170  1
  F  F12  1  0.28272579  0.59875486  0.37532527  1
  F  F13  1  0.71727464  0.90124448  0.87532537  1
  F  F14  1  0.78272601  0.40124470  0.12467484  1
  F  F15  1  0.21727442  0.09875508  0.62467495  1
