# generated using pymatgen
data_DyAlAu
_symmetry_space_group_name_H-M   'P 1'
_cell_length_a   4.44959996
_cell_length_b   7.19947011
_cell_length_c   7.78081188
_cell_angle_alpha   90.00000000
_cell_angle_beta   90.00000000
_cell_angle_gamma   90.00000000
_symmetry_Int_Tables_number   1
_chemical_formula_structural   DyAlAu
_chemical_formula_sum   'Dy4 Al4 Au4'
_cell_volume   249.25645594
_cell_formula_units_Z   4
loop_
 _symmetry_equiv_pos_site_id
 _symmetry_equiv_pos_as_xyz
  1  'x, y, z'
loop_
 _atom_site_type_symbol
 _atom_site_label
 _atom_site_symmetry_multiplicity
 _atom_site_fract_x
 _atom_site_fract_y
 _atom_site_fract_z
 _atom_site_occupancy
  Dy  Dy0  1  0.25000000  0.00932224  0.69532118  1
  Dy  Dy1  1  0.75000001  0.49067775  0.19532130  1
  Dy  Dy2  1  0.75000001  0.99067774  0.30467858  1
  Dy  Dy3  1  0.25000000  0.50932223  0.80467846  1
  Al  Al4  1  0.25000000  0.17243708  0.07848703  1
  Al  Al5  1  0.75000001  0.32756291  0.57848690  1
  Al  Al6  1  0.75000001  0.82756290  0.92151273  1
  Al  Al7  1  0.25000000  0.67243708  0.42151285  1
  Au  Au8  1  0.25000000  0.28642774  0.40456377  1
  Au  Au9  1  0.75000001  0.21357225  0.90456365  1
  Au  Au10  1  0.75000001  0.71357224  0.59543599  1
  Au  Au11  1  0.25000000  0.78642774  0.09543611  1
