# generated using pymatgen
data_Mn3C
_symmetry_space_group_name_H-M   'P 1'
_cell_length_a   4.44083284
_cell_length_b   4.92841687
_cell_length_c   6.67043561
_cell_angle_alpha   90.00000000
_cell_angle_beta   90.00000000
_cell_angle_gamma   90.00000000
_symmetry_Int_Tables_number   1
_chemical_formula_structural   Mn3C
_chemical_formula_sum   'Mn12 C4'
_cell_volume   145.99099131
_cell_formula_units_Z   4
loop_
 _symmetry_equiv_pos_site_id
 _symmetry_equiv_pos_as_xyz
  1  'x, y, z'
loop_
 _atom_site_type_symbol
 _atom_site_label
 _atom_site_symmetry_multiplicity
 _atom_site_fract_x
 _atom_site_fract_y
 _atom_site_fract_z
 _atom_site_occupancy
  Mn  Mn0  1  0.84376280  0.18677425  0.93466137  1
  Mn  Mn1  1  0.34376312  0.31322606  0.06533929  1
  Mn  Mn2  1  0.15623656  0.81322638  0.43466104  1
  Mn  Mn3  1  0.65623624  0.68677457  0.56533962  1
  Mn  Mn4  1  0.15623656  0.81322638  0.06533929  1
  Mn  Mn5  1  0.65623624  0.68677457  0.93466137  1
  Mn  Mn6  1  0.84376280  0.18677425  0.56533962  1
  Mn  Mn7  1  0.34376312  0.31322606  0.43466104  1
  Mn  Mn8  1  0.34000643  0.03038698  0.75000049  1
  Mn  Mn9  1  0.84000611  0.46961334  0.25000016  1
  Mn  Mn10  1  0.65999293  0.96961366  0.25000016  1
  Mn  Mn11  1  0.15999325  0.53038729  0.75000049  1
  C  C12  1  0.56469042  0.37758676  0.75000049  1
  C  C13  1  0.06469074  0.12241356  0.25000016  1
  C  C14  1  0.43530894  0.62241388  0.25000016  1
  C  C15  1  0.93530862  0.87758707  0.75000049  1
