# generated using pymatgen
data_NaBe2Si
_symmetry_space_group_name_H-M   'P 1'
_cell_length_a   4.51998961
_cell_length_b   4.51998961
_cell_length_c   4.51998961
_cell_angle_alpha   128.56338374
_cell_angle_beta   128.56338374
_cell_angle_gamma   75.71412952
_symmetry_Int_Tables_number   1
_chemical_formula_structural   NaBe2Si
_chemical_formula_sum   'Na1 Be2 Si1'
_cell_volume   54.91893441
_cell_formula_units_Z   1
loop_
 _symmetry_equiv_pos_site_id
 _symmetry_equiv_pos_as_xyz
  1  'x, y, z'
loop_
 _atom_site_type_symbol
 _atom_site_label
 _atom_site_symmetry_multiplicity
 _atom_site_fract_x
 _atom_site_fract_y
 _atom_site_fract_z
 _atom_site_occupancy
  Na  Na0  1  0.49999979  0.49999979  0.00000000  1
  Be  Be1  1  0.00000000  0.00000000  0.00000000  1
  Be  Be2  1  0.24999989  0.75000094  0.50000105  1
  Si  Si3  1  0.75000094  0.24999989  0.50000105  1
