# generated using pymatgen
data_Be2NiBr
_symmetry_space_group_name_H-M   'P 1'
_cell_length_a   6.04438286
_cell_length_b   6.04438286
_cell_length_c   6.04438286
_cell_angle_alpha   149.26992119
_cell_angle_beta   149.26992119
_cell_angle_gamma   44.01414672
_symmetry_Int_Tables_number   1
_chemical_formula_structural   Be2NiBr
_chemical_formula_sum   'Be2 Ni1 Br1'
_cell_volume   57.49714463
_cell_formula_units_Z   1
loop_
 _symmetry_equiv_pos_site_id
 _symmetry_equiv_pos_as_xyz
  1  'x, y, z'
loop_
 _atom_site_type_symbol
 _atom_site_label
 _atom_site_symmetry_multiplicity
 _atom_site_fract_x
 _atom_site_fract_y
 _atom_site_fract_z
 _atom_site_occupancy
  Be  Be0  1  0.00000000  0.00000000  0.00000000  1
  Be  Be1  1  0.24999979  0.75000079  0.50000099  1
  Ni  Ni2  1  0.75000079  0.24999979  0.50000099  1
  Br  Br3  1  0.49999959  0.49999959  0.00000000  1
