# generated using pymatgen
data_BaUS3
_symmetry_space_group_name_H-M   'P 1'
_cell_length_a   7.22791361
_cell_length_b   7.48621027
_cell_length_c   10.38069501
_cell_angle_alpha   90.00000000
_cell_angle_beta   90.00000000
_cell_angle_gamma   90.00000000
_symmetry_Int_Tables_number   1
_chemical_formula_structural   BaUS3
_chemical_formula_sum   'Ba4 U4 S12'
_cell_volume   561.69609621
_cell_formula_units_Z   4
loop_
 _symmetry_equiv_pos_site_id
 _symmetry_equiv_pos_as_xyz
  1  'x, y, z'
loop_
 _atom_site_type_symbol
 _atom_site_label
 _atom_site_symmetry_multiplicity
 _atom_site_fract_x
 _atom_site_fract_y
 _atom_site_fract_z
 _atom_site_occupancy
  Ba  Ba0  1  0.98409337  0.06072513  0.75000036  1
  Ba  Ba1  1  0.48409362  0.43927485  0.25000012  1
  Ba  Ba2  1  0.01590613  0.93927483  0.25000012  1
  Ba  Ba3  1  0.51590588  0.56072511  0.75000036  1
  U  U4  1  0.00000000  0.49999998  0.00000000  1
  U  U5  1  0.49999975  0.00000000  0.00000000  1
  U  U6  1  0.49999975  0.00000000  0.50000024  1
  U  U7  1  0.00000000  0.49999998  0.50000024  1
  S  S8  1  0.20115006  0.20317027  0.04478438  1
  S  S9  1  0.58585857  0.01914226  0.25000012  1
  S  S10  1  0.79884944  0.79682969  0.54478462  1
  S  S11  1  0.29884969  0.70317025  0.45521586  1
  S  S12  1  0.79884944  0.79682969  0.95521610  1
  S  S13  1  0.29884969  0.70317025  0.04478438  1
  S  S14  1  0.20115006  0.20317027  0.45521586  1
  S  S15  1  0.70114981  0.29682971  0.54478462  1
  S  S16  1  0.91414068  0.51914225  0.25000012  1
  S  S17  1  0.41414093  0.98085770  0.75000036  1
  S  S18  1  0.08585882  0.48085772  0.75000036  1
  S  S19  1  0.70114981  0.29682971  0.95521610  1
