# generated using pymatgen
data_Sc(MnGe)6
_symmetry_space_group_name_H-M   'P 1'
_cell_length_a   5.11829461
_cell_length_b   5.11829461
_cell_length_c   8.05548422
_cell_angle_alpha   90.00000000
_cell_angle_beta   90.00000000
_cell_angle_gamma   119.99921251
_symmetry_Int_Tables_number   1
_chemical_formula_structural   Sc(MnGe)6
_chemical_formula_sum   'Sc1 Mn6 Ge6'
_cell_volume   182.75795477
_cell_formula_units_Z   1
loop_
 _symmetry_equiv_pos_site_id
 _symmetry_equiv_pos_as_xyz
  1  'x, y, z'
loop_
 _atom_site_type_symbol
 _atom_site_label
 _atom_site_symmetry_multiplicity
 _atom_site_fract_x
 _atom_site_fract_y
 _atom_site_fract_z
 _atom_site_occupancy
  Sc  Sc0  1  0.00000000  0.00000000  0.00000000  1
  Mn  Mn1  1  0.50000047  -0.00000003  0.24930853  1
  Mn  Mn2  1  -0.00000003  0.50000047  0.24930853  1
  Mn  Mn3  1  0.50000044  0.50000044  0.24930560  1
  Mn  Mn4  1  -0.00000003  0.50000047  0.75069095  1
  Mn  Mn5  1  0.50000047  -0.00000003  0.75069095  1
  Mn  Mn6  1  0.50000044  0.50000044  0.75069388  1
  Ge  Ge7  1  0.33333189  0.66666898  0.00000000  1
  Ge  Ge8  1  0.66666898  0.33333189  0.00000000  1
  Ge  Ge9  1  0.33333604  0.66666483  0.49999974  1
  Ge  Ge10  1  0.66666483  0.33333604  0.49999974  1
  Ge  Ge11  1  0.00000000  0.00000000  0.33794416  1
  Ge  Ge12  1  0.00000000  0.00000000  0.66205532  1
