# generated using pymatgen
data_CaBe2Tc
_symmetry_space_group_name_H-M   'P 1'
_cell_length_a   3.12472286
_cell_length_b   3.12472286
_cell_length_c   6.04874363
_cell_angle_alpha   90.00000000
_cell_angle_beta   90.00000000
_cell_angle_gamma   90.00000000
_symmetry_Int_Tables_number   1
_chemical_formula_structural   CaBe2Tc
_chemical_formula_sum   'Ca1 Be2 Tc1'
_cell_volume   59.05928515
_cell_formula_units_Z   1
loop_
 _symmetry_equiv_pos_site_id
 _symmetry_equiv_pos_as_xyz
  1  'x, y, z'
loop_
 _atom_site_type_symbol
 _atom_site_label
 _atom_site_symmetry_multiplicity
 _atom_site_fract_x
 _atom_site_fract_y
 _atom_site_fract_z
 _atom_site_occupancy
  Ca  Ca0  1  0.49999954  0.49999954  0.00000000  1
  Be  Be1  1  0.00000000  0.00000000  0.66717382  1
  Be  Be2  1  0.00000000  0.00000000  0.33282558  1
  Tc  Tc3  1  0.49999954  0.49999954  0.49999970  1
