# generated using pymatgen
data_BeNi2Mo
_symmetry_space_group_name_H-M   'P 1'
_cell_length_a   2.66806179
_cell_length_b   2.66806179
_cell_length_c   6.31419495
_cell_angle_alpha   90.00000000
_cell_angle_beta   90.00000000
_cell_angle_gamma   90.00000000
_symmetry_Int_Tables_number   1
_chemical_formula_structural   BeNi2Mo
_chemical_formula_sum   'Be1 Ni2 Mo1'
_cell_volume   44.94793572
_cell_formula_units_Z   1
loop_
 _symmetry_equiv_pos_site_id
 _symmetry_equiv_pos_as_xyz
  1  'x, y, z'
loop_
 _atom_site_type_symbol
 _atom_site_label
 _atom_site_symmetry_multiplicity
 _atom_site_fract_x
 _atom_site_fract_y
 _atom_site_fract_z
 _atom_site_occupancy
  Be  Be0  1  0.00000000  0.00000000  0.46147511  1
  Ni  Ni1  1  0.00000000  0.00000000  0.02211953  1
  Ni  Ni2  1  0.49999967  0.49999967  0.28087737  1
  Mo  Mo3  1  0.49999967  0.49999967  0.73552681  1
