# generated using pymatgen
data_MnBeCo
_symmetry_space_group_name_H-M   'P 1'
_cell_length_a   2.44031707
_cell_length_b   2.44031707
_cell_length_c   5.74882717
_cell_angle_alpha   90.00000000
_cell_angle_beta   90.00000000
_cell_angle_gamma   119.99999681
_symmetry_Int_Tables_number   1
_chemical_formula_structural   MnBeCo
_chemical_formula_sum   'Mn1 Be1 Co1'
_cell_volume   29.64847857
_cell_formula_units_Z   1
loop_
 _symmetry_equiv_pos_site_id
 _symmetry_equiv_pos_as_xyz
  1  'x, y, z'
loop_
 _atom_site_type_symbol
 _atom_site_label
 _atom_site_symmetry_multiplicity
 _atom_site_fract_x
 _atom_site_fract_y
 _atom_site_fract_z
 _atom_site_occupancy
  Mn  Mn0  1  0.66666785  0.33333330  0.33238853  1
  Be  Be1  1  0.00000000  0.00000000  0.99498684  1
  Co  Co2  1  0.33333330  0.66666785  0.67262562  1
