# generated using pymatgen
data_Fe3Sn
_symmetry_space_group_name_H-M   'P 1'
_cell_length_a   5.44529455
_cell_length_b   5.44476656
_cell_length_c   4.28298473
_cell_angle_alpha   90.00000000
_cell_angle_beta   90.00000000
_cell_angle_gamma   120.00320784
_symmetry_Int_Tables_number   1
_chemical_formula_structural   Fe3Sn
_chemical_formula_sum   'Fe6 Sn2'
_cell_volume   109.96735017
_cell_formula_units_Z   2
loop_
 _symmetry_equiv_pos_site_id
 _symmetry_equiv_pos_as_xyz
  1  'x, y, z'
loop_
 _atom_site_type_symbol
 _atom_site_label
 _atom_site_symmetry_multiplicity
 _atom_site_fract_x
 _atom_site_fract_y
 _atom_site_fract_z
 _atom_site_occupancy
  Fe  Fe0  1  0.69936948  0.84964531  0.24999972  1
  Fe  Fe1  1  0.15027506  0.84964483  0.24999972  1
  Fe  Fe2  1  0.15035916  0.30071851  0.24999972  1
  Fe  Fe3  1  0.30063064  0.15035584  0.74999917  1
  Fe  Fe4  1  0.84972506  0.15035631  0.74999917  1
  Fe  Fe5  1  0.84964096  0.69928263  0.74999917  1
  Sn  Sn6  1  0.66662912  0.33325874  0.24999972  1
  Sn  Sn7  1  0.33337100  0.66674240  0.74999917  1
