# generated using pymatgen
data_Ce(Ge2Rh3)2
_symmetry_space_group_name_H-M   'P 1'
_cell_length_a   7.22397738
_cell_length_b   7.22397738
_cell_length_c   3.86400981
_cell_angle_alpha   90.00000000
_cell_angle_beta   90.00000000
_cell_angle_gamma   119.99960310
_symmetry_Int_Tables_number   1
_chemical_formula_structural   Ce(Ge2Rh3)2
_chemical_formula_sum   'Ce1 Ge4 Rh6'
_cell_volume   174.63180514
_cell_formula_units_Z   1
loop_
 _symmetry_equiv_pos_site_id
 _symmetry_equiv_pos_as_xyz
  1  'x, y, z'
loop_
 _atom_site_type_symbol
 _atom_site_label
 _atom_site_symmetry_multiplicity
 _atom_site_fract_x
 _atom_site_fract_y
 _atom_site_fract_z
 _atom_site_occupancy
  Ce  Ce0  1  0.99998151  0.00001839  0.00000000  1
  Ge  Ge1  1  0.33334042  0.66665948  0.00000000  1
  Ge  Ge2  1  0.80200288  0.19799703  0.50000002  1
  Ge  Ge3  1  0.80203063  0.60405867  0.50000002  1
  Ge  Ge4  1  0.39594123  0.19796927  0.50000002  1
  Rh  Rh5  1  0.53312899  0.46687092  0.00000000  1
  Rh  Rh6  1  0.53312192  0.06625145  0.00000000  1
  Rh  Rh7  1  0.93374845  0.46687798  0.00000000  1
  Rh  Rh8  1  0.19839538  0.80160452  0.50000002  1
  Rh  Rh9  1  0.19837764  0.39676889  0.50000002  1
  Rh  Rh10  1  0.60323101  0.80162226  0.50000002  1
