# generated using pymatgen
data_CeZnPt
_symmetry_space_group_name_H-M   'P 1'
_cell_length_a   4.34353425
_cell_length_b   6.96981347
_cell_length_c   8.12912680
_cell_angle_alpha   90.00000000
_cell_angle_beta   90.00000000
_cell_angle_gamma   90.00000000
_symmetry_Int_Tables_number   1
_chemical_formula_structural   CeZnPt
_chemical_formula_sum   'Ce4 Zn4 Pt4'
_cell_volume   246.09812428
_cell_formula_units_Z   4
loop_
 _symmetry_equiv_pos_site_id
 _symmetry_equiv_pos_as_xyz
  1  'x, y, z'
loop_
 _atom_site_type_symbol
 _atom_site_label
 _atom_site_symmetry_multiplicity
 _atom_site_fract_x
 _atom_site_fract_y
 _atom_site_fract_z
 _atom_site_occupancy
  Ce  Ce0  1  0.24999976  0.03217599  0.30487906  1
  Ce  Ce1  1  0.74999927  0.46782377  0.80487926  1
  Ce  Ce2  1  0.74999927  0.96782352  0.69512133  1
  Ce  Ce3  1  0.24999976  0.53217574  0.19512113  1
  Zn  Zn4  1  0.24999976  0.15079611  0.93262668  1
  Zn  Zn5  1  0.74999927  0.34920364  0.43262648  1
  Zn  Zn6  1  0.74999927  0.84920339  0.06737372  1
  Zn  Zn7  1  0.24999976  0.65079587  0.56737391  1
  Pt  Pt8  1  0.24999976  0.25677079  0.61080578  1
  Pt  Pt9  1  0.74999927  0.24322897  0.11080558  1
  Pt  Pt10  1  0.74999927  0.74322872  0.38919461  1
  Pt  Pt11  1  0.24999976  0.75677054  0.88919481  1
