# generated using pymatgen
data_Sr2CuWO6
_symmetry_space_group_name_H-M   'P 1'
_cell_length_a   5.76810716
_cell_length_b   5.76810716
_cell_length_c   5.76810716
_cell_angle_alpha   124.13218773
_cell_angle_beta   124.13218773
_cell_angle_gamma   82.98043926
_symmetry_Int_Tables_number   1
_chemical_formula_structural   Sr2CuWO6
_chemical_formula_sum   'Sr2 Cu1 W1 O6'
_cell_volume   126.18658986
_cell_formula_units_Z   1
loop_
 _symmetry_equiv_pos_site_id
 _symmetry_equiv_pos_as_xyz
  1  'x, y, z'
loop_
 _atom_site_type_symbol
 _atom_site_label
 _atom_site_symmetry_multiplicity
 _atom_site_fract_x
 _atom_site_fract_y
 _atom_site_fract_z
 _atom_site_occupancy
  Sr  Sr0  1  0.75000088  0.24999997  0.50000076  1
  Sr  Sr1  1  0.25000012  0.75000088  0.50000090  1
  Cu  Cu2  1  0.50000009  0.50000009  0.00000000  1
  W  W3  1  0.00000000  0.00000000  0.00000000  1
  O  O4  1  0.19486059  0.30094605  0.49580664  1
  O  O5  1  0.80514040  0.69905480  0.50419502  1
  O  O6  1  0.30094538  0.80514040  0.10608560  1
  O  O7  1  0.69905562  0.19486045  0.89391607  1
  O  O8  1  0.22487616  0.22487616  -0.00000000  1
  O  O9  1  0.77512402  0.77512402  0.00000000  1
