# generated using pymatgen
data_BeTlBi
_symmetry_space_group_name_H-M   'P 1'
_cell_length_a   6.90636426
_cell_length_b   6.90636426
_cell_length_c   6.90636426
_cell_angle_alpha   151.49356361
_cell_angle_beta   151.49356361
_cell_angle_gamma   40.75333309
_symmetry_Int_Tables_number   1
_chemical_formula_structural   BeTlBi
_chemical_formula_sum   'Be1 Tl1 Bi1'
_cell_volume   74.87689300
_cell_formula_units_Z   1
loop_
 _symmetry_equiv_pos_site_id
 _symmetry_equiv_pos_as_xyz
  1  'x, y, z'
loop_
 _atom_site_type_symbol
 _atom_site_label
 _atom_site_symmetry_multiplicity
 _atom_site_fract_x
 _atom_site_fract_y
 _atom_site_fract_z
 _atom_site_occupancy
  Be  Be0  1  0.98921332  0.98921332  0.00000000  1
  Tl  Tl1  1  0.64005228  0.64005228  0.00000000  1
  Bi  Bi2  1  0.37073319  0.37073319  0.00000000  1
