# generated using pymatgen
data_ScCd7
_symmetry_space_group_name_H-M   'P 1'
_cell_length_a   6.28290552
_cell_length_b   6.28290552
_cell_length_c   9.36126282
_cell_angle_alpha   90.00000000
_cell_angle_beta   90.00000000
_cell_angle_gamma   107.71673700
_symmetry_Int_Tables_number   1
_chemical_formula_structural   ScCd7
_chemical_formula_sum   'Sc2 Cd14'
_cell_volume   352.00885925
_cell_formula_units_Z   2
loop_
 _symmetry_equiv_pos_site_id
 _symmetry_equiv_pos_as_xyz
  1  'x, y, z'
loop_
 _atom_site_type_symbol
 _atom_site_label
 _atom_site_symmetry_multiplicity
 _atom_site_fract_x
 _atom_site_fract_y
 _atom_site_fract_z
 _atom_site_occupancy
  Sc  Sc0  1  0.47825524  0.52174403  0.74999977  1
  Sc  Sc1  1  0.52174403  0.47825524  0.24999992  1
  Cd  Cd2  1  0.40378937  0.00333467  0.74999977  1
  Cd  Cd3  1  0.59620990  0.99666460  0.24999992  1
  Cd  Cd4  1  0.99666460  0.59620990  0.74999977  1
  Cd  Cd5  1  0.00333467  0.40378937  0.24999992  1
  Cd  Cd6  1  0.70798563  0.29201365  0.98366841  1
  Cd  Cd7  1  0.29201365  0.70798563  0.48366856  1
  Cd  Cd8  1  0.70798563  0.29201365  0.51633114  1
  Cd  Cd9  1  0.29201365  0.70798563  0.01633129  1
  Cd  Cd10  1  0.78775991  0.78775991  0.00000000  1
  Cd  Cd11  1  0.21223936  0.21223936  0.49999985  1
  Cd  Cd12  1  0.21223936  0.21223936  0.00000000  1
  Cd  Cd13  1  0.78775991  0.78775991  0.49999985  1
  Cd  Cd14  1  0.91408109  0.08591818  0.74999977  1
  Cd  Cd15  1  0.08591818  0.91408109  0.24999992  1
