# generated using pymatgen
data_CaSc2Be
_symmetry_space_group_name_H-M   'P 1'
_cell_length_a   3.30999138
_cell_length_b   3.30999138
_cell_length_c   8.37186993
_cell_angle_alpha   90.00000000
_cell_angle_beta   90.00000000
_cell_angle_gamma   90.00000000
_symmetry_Int_Tables_number   1
_chemical_formula_structural   CaSc2Be
_chemical_formula_sum   'Ca1 Sc2 Be1'
_cell_volume   91.72256632
_cell_formula_units_Z   1
loop_
 _symmetry_equiv_pos_site_id
 _symmetry_equiv_pos_as_xyz
  1  'x, y, z'
loop_
 _atom_site_type_symbol
 _atom_site_label
 _atom_site_symmetry_multiplicity
 _atom_site_fract_x
 _atom_site_fract_y
 _atom_site_fract_z
 _atom_site_occupancy
  Ca  Ca0  1  0.49999979  0.49999979  0.30323814  1
  Sc  Sc1  1  0.00000000  0.00000000  0.96096068  1
  Sc  Sc2  1  0.49999979  0.49999979  0.69730856  1
  Be  Be3  1  0.00000000  0.00000000  0.53849165  1
