# generated using pymatgen
data_V3S4
_symmetry_space_group_name_H-M   'P 1'
_cell_length_a   9.09634297
_cell_length_b   9.09638032
_cell_length_c   3.25294715
_cell_angle_alpha   90.00000000
_cell_angle_beta   90.00000000
_cell_angle_gamma   119.99897803
_symmetry_Int_Tables_number   1
_chemical_formula_structural   V3S4
_chemical_formula_sum   'V6 S8'
_cell_volume   233.10283089
_cell_formula_units_Z   2
loop_
 _symmetry_equiv_pos_site_id
 _symmetry_equiv_pos_as_xyz
  1  'x, y, z'
loop_
 _atom_site_type_symbol
 _atom_site_label
 _atom_site_symmetry_multiplicity
 _atom_site_fract_x
 _atom_site_fract_y
 _atom_site_fract_z
 _atom_site_occupancy
  V  V0  1  0.48843672  0.11649402  0.25000022  1
  V  V1  1  0.88349902  0.37194292  0.25000022  1
  V  V2  1  0.62806882  0.51156246  0.25000022  1
  V  V3  1  0.51156335  0.88350544  0.75000066  1
  V  V4  1  0.11650105  0.62805654  0.75000066  1
  V  V5  1  0.37193125  0.48843700  0.75000066  1
  S  S6  1  0.34477623  0.29277746  0.25000022  1
  S  S7  1  0.70723476  0.05199582  0.25000022  1
  S  S8  1  0.94800936  0.65523748  0.25000022  1
  S  S9  1  0.65522383  0.70722201  0.75000066  1
  S  S10  1  0.29276530  0.94800364  0.75000066  1
  S  S11  1  0.05199070  0.34476199  0.75000066  1
  S  S12  1  0.33333391  0.66666677  0.25000022  1
  S  S13  1  0.66666616  0.33333269  0.75000066  1
