# generated using pymatgen
data_Ba4PtPb
_symmetry_space_group_name_H-M   'P 1'
_cell_length_a   6.84690346
_cell_length_b   6.84690346
_cell_length_c   6.84690346
_cell_angle_alpha   60.00000000
_cell_angle_beta   60.00000000
_cell_angle_gamma   60.00000000
_symmetry_Int_Tables_number   1
_chemical_formula_structural   Ba4PtPb
_chemical_formula_sum   'Ba4 Pt1 Pb1'
_cell_volume   226.96955971
_cell_formula_units_Z   1
loop_
 _symmetry_equiv_pos_site_id
 _symmetry_equiv_pos_as_xyz
  1  'x, y, z'
loop_
 _atom_site_type_symbol
 _atom_site_label
 _atom_site_symmetry_multiplicity
 _atom_site_fract_x
 _atom_site_fract_y
 _atom_site_fract_z
 _atom_site_occupancy
  Ba  Ba0  1  0.12353787  0.62548712  0.62548712  1
  Ba  Ba1  1  0.62548712  0.62548712  0.62548712  1
  Ba  Ba2  1  0.62548712  0.12353787  0.62548712  1
  Ba  Ba3  1  0.62548712  0.62548712  0.12353787  1
  Pt  Pt4  1  0.00000000  0.00000000  0.00000000  1
  Pb  Pb5  1  0.24999990  0.24999990  0.24999990  1
