# generated using pymatgen
data_Ba4GeRh
_symmetry_space_group_name_H-M   'P 1'
_cell_length_a   6.74674282
_cell_length_b   6.74674282
_cell_length_c   6.74674282
_cell_angle_alpha   60.00000000
_cell_angle_beta   60.00000000
_cell_angle_gamma   60.00000000
_symmetry_Int_Tables_number   1
_chemical_formula_structural   Ba4GeRh
_chemical_formula_sum   'Ba4 Ge1 Rh1'
_cell_volume   217.15381748
_cell_formula_units_Z   1
loop_
 _symmetry_equiv_pos_site_id
 _symmetry_equiv_pos_as_xyz
  1  'x, y, z'
loop_
 _atom_site_type_symbol
 _atom_site_label
 _atom_site_symmetry_multiplicity
 _atom_site_fract_x
 _atom_site_fract_y
 _atom_site_fract_z
 _atom_site_occupancy
  Ba  Ba0  1  0.12490961  0.62503080  0.62503080  1
  Ba  Ba1  1  0.62503080  0.62503080  0.62503080  1
  Ba  Ba2  1  0.62503080  0.12490961  0.62503080  1
  Ba  Ba3  1  0.62503080  0.62503080  0.12490961  1
  Ge  Ge4  1  0.25000013  0.25000013  0.25000013  1
  Rh  Rh5  1  0.00000000  0.00000000  0.00000000  1
