# generated using pymatgen
data_NdGa2Ni
_symmetry_space_group_name_H-M   'P 1'
_cell_length_a   8.98988813
_cell_length_b   8.98988813
_cell_length_c   4.15943883
_cell_angle_alpha   90.00000000
_cell_angle_beta   90.00000000
_cell_angle_gamma   153.03080197
_symmetry_Int_Tables_number   1
_chemical_formula_structural   NdGa2Ni
_chemical_formula_sum   'Nd2 Ga4 Ni2'
_cell_volume   152.45144902
_cell_formula_units_Z   2
loop_
 _symmetry_equiv_pos_site_id
 _symmetry_equiv_pos_as_xyz
  1  'x, y, z'
loop_
 _atom_site_type_symbol
 _atom_site_label
 _atom_site_symmetry_multiplicity
 _atom_site_fract_x
 _atom_site_fract_y
 _atom_site_fract_z
 _atom_site_occupancy
  Nd  Nd0  1  0.14199385  0.85800713  0.00000000  1
  Nd  Nd1  1  0.85800713  0.14199385  0.00000000  1
  Ga  Ga2  1  0.50000049  0.50000049  0.00000000  1
  Ga  Ga3  1  0.00000000  0.00000000  0.50000014  1
  Ga  Ga4  1  0.29068037  0.70932062  0.50000014  1
  Ga  Ga5  1  0.70932062  0.29068037  0.50000014  1
  Ni  Ni6  1  0.42667262  0.57332836  0.50000014  1
  Ni  Ni7  1  0.57332836  0.42667262  0.50000014  1
