# generated using pymatgen
data_AuF3
_symmetry_space_group_name_H-M   'P 1'
_cell_length_a   5.09457854
_cell_length_b   5.09457854
_cell_length_c   16.62855118
_cell_angle_alpha   90.00000000
_cell_angle_beta   90.00000000
_cell_angle_gamma   119.99999949
_symmetry_Int_Tables_number   1
_chemical_formula_structural   AuF3
_chemical_formula_sum   'Au6 F18'
_cell_volume   373.76752864
_cell_formula_units_Z   6
loop_
 _symmetry_equiv_pos_site_id
 _symmetry_equiv_pos_as_xyz
  1  'x, y, z'
loop_
 _atom_site_type_symbol
 _atom_site_label
 _atom_site_symmetry_multiplicity
 _atom_site_fract_x
 _atom_site_fract_y
 _atom_site_fract_z
 _atom_site_occupancy
  Au  Au0  1  0.51682073  0.75841077  0.58333296  1
  Au  Au1  1  0.24158951  0.48317955  0.24999998  1
  Au  Au2  1  0.24158969  0.75841059  0.91666693  1
  Au  Au3  1  0.48317955  0.24158951  0.08333299  1
  Au  Au4  1  0.75841077  0.51682073  0.74999995  1
  Au  Au5  1  0.75841059  0.24158969  0.41666697  1
  F  F6  1  0.78982823  0.31771171  0.00448503  1
  F  F7  1  0.47211733  0.78982833  0.17115202  1
  F  F8  1  0.31771154  0.52788302  0.83781797  1
  F  F9  1  0.21017205  0.68228857  0.50448500  1
  F  F10  1  0.21017195  0.52788295  0.66218192  1
  F  F11  1  0.47211726  0.68228874  0.99551490  1
  F  F12  1  0.31771171  0.78982823  0.32884795  1
  F  F13  1  0.78982833  0.47211733  0.16218196  1
  F  F14  1  0.84227849  0.84227849  0.66666695  1
  F  F15  1  0.68228857  0.21017205  0.82884791  1
  F  F16  1  0.68228874  0.47211726  0.33781801  1
  F  F17  1  0.15772169  0.00000010  0.00000000  1
  F  F18  1  0.00000010  0.15772169  0.33333298  1
  F  F19  1  0.15772179  0.15772179  0.16666699  1
  F  F20  1  0.84227795  0.00000054  0.49999996  1
  F  F21  1  0.00000054  0.84227795  0.83333294  1
  F  F22  1  0.52788302  0.31771154  0.49551493  1
  F  F23  1  0.52788295  0.21017195  0.67115198  1
