# generated using pymatgen
data_CeSi2Rh
_symmetry_space_group_name_H-M   'P 1'
_cell_length_a   8.68485183
_cell_length_b   8.68485183
_cell_length_c   4.17475381
_cell_angle_alpha   90.00000000
_cell_angle_beta   90.00000000
_cell_angle_gamma   151.89613479
_symmetry_Int_Tables_number   1
_chemical_formula_structural   CeSi2Rh
_chemical_formula_sum   'Ce2 Si4 Rh2'
_cell_volume   148.33458614
_cell_formula_units_Z   2
loop_
 _symmetry_equiv_pos_site_id
 _symmetry_equiv_pos_as_xyz
  1  'x, y, z'
loop_
 _atom_site_type_symbol
 _atom_site_label
 _atom_site_symmetry_multiplicity
 _atom_site_fract_x
 _atom_site_fract_y
 _atom_site_fract_z
 _atom_site_occupancy
  Ce  Ce0  1  0.10569809  0.89430048  0.24999977  1
  Ce  Ce1  1  0.89430048  0.10569809  0.74999932  1
  Si  Si2  1  0.46269724  0.53730132  0.24999977  1
  Si  Si3  1  0.53730132  0.46269724  0.74999932  1
  Si  Si4  1  0.75059342  0.24940514  0.24999977  1
  Si  Si5  1  0.24940514  0.75059342  0.74999932  1
  Rh  Rh6  1  0.67812828  0.32187028  0.74999932  1
  Rh  Rh7  1  0.32187028  0.67812828  0.24999977  1
