# generated using pymatgen
data_Yb3Ni
_symmetry_space_group_name_H-M   'P 1'
_cell_length_a   6.24065420
_cell_length_b   7.19847524
_cell_length_c   9.26245960
_cell_angle_alpha   90.00000000
_cell_angle_beta   90.00000000
_cell_angle_gamma   90.00000000
_symmetry_Int_Tables_number   1
_chemical_formula_structural   Yb3Ni
_chemical_formula_sum   'Yb12 Ni4'
_cell_volume   416.09927605
_cell_formula_units_Z   4
loop_
 _symmetry_equiv_pos_site_id
 _symmetry_equiv_pos_as_xyz
  1  'x, y, z'
loop_
 _atom_site_type_symbol
 _atom_site_label
 _atom_site_symmetry_multiplicity
 _atom_site_fract_x
 _atom_site_fract_y
 _atom_site_fract_z
 _atom_site_occupancy
  Yb  Yb0  1  0.83533688  0.17149296  0.93125557  1
  Yb  Yb1  1  0.33533722  0.32850737  0.06874447  1
  Yb  Yb2  1  0.16466245  0.82850770  0.43125555  1
  Yb  Yb3  1  0.66466211  0.67149329  0.56874449  1
  Yb  Yb4  1  0.16466245  0.82850770  0.06874447  1
  Yb  Yb5  1  0.66466211  0.67149329  0.93125557  1
  Yb  Yb6  1  0.83533688  0.17149296  0.56874449  1
  Yb  Yb7  1  0.33533722  0.32850737  0.43125555  1
  Yb  Yb8  1  0.35412974  0.04473069  0.75000003  1
  Yb  Yb9  1  0.85412941  0.45526964  0.25000001  1
  Yb  Yb10  1  0.64586958  0.95526997  0.25000001  1
  Yb  Yb11  1  0.14586992  0.54473102  0.75000003  1
  Ni  Ni12  1  0.54610057  0.38185452  0.75000003  1
  Ni  Ni13  1  0.04610091  0.11814581  0.25000001  1
  Ni  Ni14  1  0.45389875  0.61814614  0.25000001  1
  Ni  Ni15  1  0.95389842  0.88185485  0.75000003  1
