# generated using pymatgen
data_Ba4LiPd
_symmetry_space_group_name_H-M   'P 1'
_cell_length_a   7.11677219
_cell_length_b   7.11677219
_cell_length_c   7.11677219
_cell_angle_alpha   60.00000000
_cell_angle_beta   60.00000000
_cell_angle_gamma   60.00000000
_symmetry_Int_Tables_number   1
_chemical_formula_structural   Ba4LiPd
_chemical_formula_sum   'Ba4 Li1 Pd1'
_cell_volume   254.87908180
_cell_formula_units_Z   1
loop_
 _symmetry_equiv_pos_site_id
 _symmetry_equiv_pos_as_xyz
  1  'x, y, z'
loop_
 _atom_site_type_symbol
 _atom_site_label
 _atom_site_symmetry_multiplicity
 _atom_site_fract_x
 _atom_site_fract_y
 _atom_site_fract_z
 _atom_site_occupancy
  Ba  Ba0  1  0.12099322  0.62633621  0.62633621  1
  Ba  Ba1  1  0.62633621  0.62633621  0.62633621  1
  Ba  Ba2  1  0.62633621  0.12099322  0.62633621  1
  Ba  Ba3  1  0.62633621  0.62633621  0.12099322  1
  Li  Li4  1  0.25000011  0.25000011  0.25000011  1
  Pd  Pd5  1  0.00000000  0.00000000  0.00000000  1
