# generated using pymatgen
data_Dy5Si3B
_symmetry_space_group_name_H-M   'P 1'
_cell_length_a   8.54908572
_cell_length_b   8.54908572
_cell_length_c   6.32522928
_cell_angle_alpha   90.00000000
_cell_angle_beta   90.00000000
_cell_angle_gamma   120.00000210
_symmetry_Int_Tables_number   1
_chemical_formula_structural   Dy5Si3B
_chemical_formula_sum   'Dy10 Si6 B2'
_cell_volume   400.35590516
_cell_formula_units_Z   2
loop_
 _symmetry_equiv_pos_site_id
 _symmetry_equiv_pos_as_xyz
  1  'x, y, z'
loop_
 _atom_site_type_symbol
 _atom_site_label
 _atom_site_symmetry_multiplicity
 _atom_site_fract_x
 _atom_site_fract_y
 _atom_site_fract_z
 _atom_site_occupancy
  Dy  Dy0  1  0.33333258  0.66666678  0.50000006  1
  Dy  Dy1  1  0.76040640  -0.00000047  0.25000003  1
  Dy  Dy2  1  0.23959343  0.23959343  0.25000003  1
  Dy  Dy3  1  0.23959358  -0.00000015  0.75000009  1
  Dy  Dy4  1  -0.00000015  0.23959358  0.75000009  1
  Dy  Dy5  1  -0.00000047  0.76040640  0.25000003  1
  Dy  Dy6  1  0.33333258  0.66666678  0.00000000  1
  Dy  Dy7  1  0.66666678  0.33333258  0.50000006  1
  Dy  Dy8  1  0.66666678  0.33333258  0.00000000  1
  Dy  Dy9  1  0.76040593  0.76040593  0.75000009  1
  Si  Si10  1  0.39900812  0.39900812  0.75000009  1
  Si  Si11  1  -0.00000037  0.60099161  0.75000009  1
  Si  Si12  1  0.60099161  -0.00000037  0.75000009  1
  Si  Si13  1  0.60099124  0.60099124  0.25000003  1
  Si  Si14  1  -0.00000025  0.39900837  0.25000003  1
  Si  Si15  1  0.39900837  -0.00000025  0.25000003  1
  B  B16  1  0.00000000  0.00000000  0.00000000  1
  B  B17  1  0.00000000  0.00000000  0.50000006  1
