# generated using pymatgen
data_Be2CoPt
_symmetry_space_group_name_H-M   'P 1'
_cell_length_a   2.75813912
_cell_length_b   2.75813912
_cell_length_c   5.44707244
_cell_angle_alpha   90.00000000
_cell_angle_beta   90.00000000
_cell_angle_gamma   90.00000000
_symmetry_Int_Tables_number   1
_chemical_formula_structural   Be2CoPt
_chemical_formula_sum   'Be2 Co1 Pt1'
_cell_volume   41.43768517
_cell_formula_units_Z   1
loop_
 _symmetry_equiv_pos_site_id
 _symmetry_equiv_pos_as_xyz
  1  'x, y, z'
loop_
 _atom_site_type_symbol
 _atom_site_label
 _atom_site_symmetry_multiplicity
 _atom_site_fract_x
 _atom_site_fract_y
 _atom_site_fract_z
 _atom_site_occupancy
  Be  Be0  1  0.00000000  0.00000000  0.02974255  1
  Be  Be1  1  0.50000016  0.50000016  0.24612314  1
  Co  Co2  1  0.00000000  0.00000000  0.43967420  1
  Pt  Pt3  1  0.50000016  0.50000016  0.78445944  1
