# generated using pymatgen
data_Be2PBr
_symmetry_space_group_name_H-M   'P 1'
_cell_length_a   6.99843539
_cell_length_b   6.99843539
_cell_length_c   6.99843539
_cell_angle_alpha   153.11824831
_cell_angle_beta   153.11824831
_cell_angle_gamma   38.38249780
_symmetry_Int_Tables_number   1
_chemical_formula_structural   Be2PBr
_chemical_formula_sum   'Be2 P1 Br1'
_cell_volume   69.96159154
_cell_formula_units_Z   1
loop_
 _symmetry_equiv_pos_site_id
 _symmetry_equiv_pos_as_xyz
  1  'x, y, z'
loop_
 _atom_site_type_symbol
 _atom_site_label
 _atom_site_symmetry_multiplicity
 _atom_site_fract_x
 _atom_site_fract_y
 _atom_site_fract_z
 _atom_site_occupancy
  Be  Be0  1  0.00000000  0.00000000  0.00000000  1
  Be  Be1  1  0.25000006  0.75000030  0.50000025  1
  P  P2  1  0.75000030  0.25000006  0.50000025  1
  Br  Br3  1  0.50000012  0.50000012  0.00000000  1
