# generated using pymatgen
data_BeZnPd
_symmetry_space_group_name_H-M   'P 1'
_cell_length_a   2.79466128
_cell_length_b   2.79466128
_cell_length_c   5.84922206
_cell_angle_alpha   90.00000000
_cell_angle_beta   90.00000000
_cell_angle_gamma   120.00000655
_symmetry_Int_Tables_number   1
_chemical_formula_structural   BeZnPd
_chemical_formula_sum   'Be1 Zn1 Pd1'
_cell_volume   39.56280434
_cell_formula_units_Z   1
loop_
 _symmetry_equiv_pos_site_id
 _symmetry_equiv_pos_as_xyz
  1  'x, y, z'
loop_
 _atom_site_type_symbol
 _atom_site_label
 _atom_site_symmetry_multiplicity
 _atom_site_fract_x
 _atom_site_fract_y
 _atom_site_fract_z
 _atom_site_occupancy
  Be  Be0  1  0.00000000  0.00000000  0.98481065  1
  Zn  Zn1  1  0.66666698  0.33333267  0.31905624  1
  Pd  Pd2  1  0.33333267  0.66666698  0.69613240  1
