# generated using pymatgen
data_ZrCuGe
_symmetry_space_group_name_H-M   'P 1'
_cell_length_a   4.00543115
_cell_length_b   6.57622465
_cell_length_c   7.43335791
_cell_angle_alpha   90.00000000
_cell_angle_beta   90.00000000
_cell_angle_gamma   90.00000000
_symmetry_Int_Tables_number   1
_chemical_formula_structural   ZrCuGe
_chemical_formula_sum   'Zr4 Cu4 Ge4'
_cell_volume   195.79921909
_cell_formula_units_Z   4
loop_
 _symmetry_equiv_pos_site_id
 _symmetry_equiv_pos_as_xyz
  1  'x, y, z'
loop_
 _atom_site_type_symbol
 _atom_site_label
 _atom_site_symmetry_multiplicity
 _atom_site_fract_x
 _atom_site_fract_y
 _atom_site_fract_z
 _atom_site_occupancy
  Zr  Zr0  1  0.24999993  0.01047369  0.80476282  1
  Zr  Zr1  1  0.74999979  0.48952595  0.30476268  1
  Zr  Zr2  1  0.74999979  0.98952560  0.19523746  1
  Zr  Zr3  1  0.24999993  0.51047334  0.69523760  1
  Cu  Cu4  1  0.24999993  0.17124183  0.42218183  1
  Cu  Cu5  1  0.74999979  0.32875781  0.92218197  1
  Cu  Cu6  1  0.74999979  0.82875746  0.57781845  1
  Cu  Cu7  1  0.24999993  0.67124148  0.07781831  1
  Ge  Ge8  1  0.24999993  0.77653996  0.39935557  1
  Ge  Ge9  1  0.74999979  0.72345898  0.89935571  1
  Ge  Ge10  1  0.74999979  0.22345933  0.60064471  1
  Ge  Ge11  1  0.24999993  0.27654031  0.10064457  1
