# generated using pymatgen
data_BeZnIn
_symmetry_space_group_name_H-M   'P 1'
_cell_length_a   3.12116640
_cell_length_b   3.12116640
_cell_length_c   6.08159372
_cell_angle_alpha   90.00000000
_cell_angle_beta   90.00000000
_cell_angle_gamma   120.00000848
_symmetry_Int_Tables_number   1
_chemical_formula_structural   BeZnIn
_chemical_formula_sum   'Be1 Zn1 In1'
_cell_volume   51.30761692
_cell_formula_units_Z   1
loop_
 _symmetry_equiv_pos_site_id
 _symmetry_equiv_pos_as_xyz
  1  'x, y, z'
loop_
 _atom_site_type_symbol
 _atom_site_label
 _atom_site_symmetry_multiplicity
 _atom_site_fract_x
 _atom_site_fract_y
 _atom_site_fract_z
 _atom_site_occupancy
  Be  Be0  1  0.00000000  0.00000000  0.02365045  1
  Zn  Zn1  1  0.33333201  0.66666607  0.29136016  1
  In  In2  1  0.66666607  0.33333201  0.68498978  1
