# generated using pymatgen
data_BeTlTe
_symmetry_space_group_name_H-M   'P 1'
_cell_length_a   6.74121074
_cell_length_b   6.74121074
_cell_length_c   6.74121074
_cell_angle_alpha   148.88602521
_cell_angle_beta   148.88602521
_cell_angle_gamma   44.57909825
_symmetry_Int_Tables_number   1
_chemical_formula_structural   BeTlTe
_chemical_formula_sum   'Be1 Tl1 Te1'
_cell_volume   81.55548774
_cell_formula_units_Z   1
loop_
 _symmetry_equiv_pos_site_id
 _symmetry_equiv_pos_as_xyz
  1  'x, y, z'
loop_
 _atom_site_type_symbol
 _atom_site_label
 _atom_site_symmetry_multiplicity
 _atom_site_fract_x
 _atom_site_fract_y
 _atom_site_fract_z
 _atom_site_occupancy
  Be  Be0  1  0.92029224  0.92029224  0.00000000  1
  Tl  Tl1  1  0.67067276  0.67067276  0.00000000  1
  Te  Te2  1  0.40903494  0.40903494  0.00000000  1
