# generated using pymatgen
data_LaBPt2
_symmetry_space_group_name_H-M   'P 1'
_cell_length_a   5.56764635
_cell_length_b   5.56764635
_cell_length_c   8.04458341
_cell_angle_alpha   90.00000000
_cell_angle_beta   90.00000000
_cell_angle_gamma   120.00000000
_symmetry_Int_Tables_number   1
_chemical_formula_structural   LaBPt2
_chemical_formula_sum   'La3 B3 Pt6'
_cell_volume   215.96206627
_cell_formula_units_Z   3
loop_
 _symmetry_equiv_pos_site_id
 _symmetry_equiv_pos_as_xyz
  1  'x, y, z'
loop_
 _atom_site_type_symbol
 _atom_site_label
 _atom_site_symmetry_multiplicity
 _atom_site_fract_x
 _atom_site_fract_y
 _atom_site_fract_z
 _atom_site_occupancy
  La  La0  1  -0.00000012  0.49999955  0.00000000  1
  La  La1  1  0.49999943  0.49999943  0.66666638  1
  La  La2  1  0.49999955  -0.00000012  0.33333319  1
  B  B3  1  -0.00000012  0.49999955  0.49999979  1
  B  B4  1  0.49999943  0.49999943  0.16666660  1
  B  B5  1  0.49999955  -0.00000012  0.83333298  1
  Pt  Pt6  1  0.31061692  0.15530841  0.00000000  1
  Pt  Pt7  1  0.84469058  0.15530828  0.66666638  1
  Pt  Pt8  1  0.84469045  0.68938194  0.33333319  1
  Pt  Pt9  1  0.68938194  0.84469045  0.00000000  1
  Pt  Pt10  1  0.15530828  0.84469058  0.66666638  1
  Pt  Pt11  1  0.15530841  0.31061692  0.33333319  1
