# generated using pymatgen
data_LiBeW
_symmetry_space_group_name_H-M   'P 1'
_cell_length_a   2.67802966
_cell_length_b   2.67802966
_cell_length_c   6.74318990
_cell_angle_alpha   90.00000000
_cell_angle_beta   90.00000000
_cell_angle_gamma   120.00000614
_symmetry_Int_Tables_number   1
_chemical_formula_structural   LiBeW
_chemical_formula_sum   'Li1 Be1 W1'
_cell_volume   41.88193715
_cell_formula_units_Z   1
loop_
 _symmetry_equiv_pos_site_id
 _symmetry_equiv_pos_as_xyz
  1  'x, y, z'
loop_
 _atom_site_type_symbol
 _atom_site_label
 _atom_site_symmetry_multiplicity
 _atom_site_fract_x
 _atom_site_fract_y
 _atom_site_fract_z
 _atom_site_occupancy
  Li  Li0  1  0.33333137  0.66666511  0.67963682  1
  Be  Be1  1  0.00000000  0.00000000  0.00676559  1
  W  W2  1  0.66666511  0.33333137  0.31359760  1
