# generated using pymatgen
data_Pr(Ge2Rh3)2
_symmetry_space_group_name_H-M   'P 1'
_cell_length_a   7.22845055
_cell_length_b   7.22845055
_cell_length_c   3.88926018
_cell_angle_alpha   90.00000000
_cell_angle_beta   90.00000000
_cell_angle_gamma   120.00000000
_symmetry_Int_Tables_number   1
_chemical_formula_structural   Pr(Ge2Rh3)2
_chemical_formula_sum   'Pr1 Ge4 Rh6'
_cell_volume   175.99002704
_cell_formula_units_Z   1
loop_
 _symmetry_equiv_pos_site_id
 _symmetry_equiv_pos_as_xyz
  1  'x, y, z'
loop_
 _atom_site_type_symbol
 _atom_site_label
 _atom_site_symmetry_multiplicity
 _atom_site_fract_x
 _atom_site_fract_y
 _atom_site_fract_z
 _atom_site_occupancy
  Pr  Pr0  1  0.00000000  0.00000000  0.00000000  1
  Ge  Ge1  1  0.33333370  0.66666661  0.00000000  1
  Ge  Ge2  1  0.80171236  0.60342388  0.49999998  1
  Ge  Ge3  1  0.39657742  0.19828895  0.49999998  1
  Ge  Ge4  1  0.80171203  0.19828927  0.49999998  1
  Rh  Rh5  1  0.53319121  0.06638224  0.00000000  1
  Rh  Rh6  1  0.93361907  0.46681009  0.00000000  1
  Rh  Rh7  1  0.53319153  0.46680977  0.00000000  1
  Rh  Rh8  1  0.20041547  0.40083045  0.49999998  1
  Rh  Rh9  1  0.59917085  0.79958584  0.49999998  1
  Rh  Rh10  1  0.20041579  0.79958552  0.49999998  1
