# generated using pymatgen
data_Ni(BW)3
_symmetry_space_group_name_H-M   'P 1'
_cell_length_a   4.52582145
_cell_length_b   4.52582145
_cell_length_c   10.79569863
_cell_angle_alpha   90.00000000
_cell_angle_beta   90.00000000
_cell_angle_gamma   138.42696141
_symmetry_Int_Tables_number   1
_chemical_formula_structural   Ni(BW)3
_chemical_formula_sum   'Ni2 B6 W6'
_cell_volume   146.73547114
_cell_formula_units_Z   2
loop_
 _symmetry_equiv_pos_site_id
 _symmetry_equiv_pos_as_xyz
  1  'x, y, z'
loop_
 _atom_site_type_symbol
 _atom_site_label
 _atom_site_symmetry_multiplicity
 _atom_site_fract_x
 _atom_site_fract_y
 _atom_site_fract_z
 _atom_site_occupancy
  Ni  Ni0  1  0.50000149  0.50000149  0.00000000  1
  Ni  Ni1  1  0.50000149  0.50000149  0.50000006  1
  B  B2  1  0.91114503  0.08885795  0.89544097  1
  B  B3  1  0.08885795  0.91114503  0.39544090  1
  B  B4  1  0.91114503  0.08885795  0.60455922  1
  B  B5  1  0.08885795  0.91114503  0.10455916  1
  B  B6  1  0.79144362  0.20855936  0.75000010  1
  B  B7  1  0.20855936  0.79144362  0.25000003  1
  W  W8  1  0.21189286  0.78811012  0.89178410  1
  W  W9  1  0.78811012  0.21189286  0.39178403  1
  W  W10  1  0.21189286  0.78811012  0.60821609  1
  W  W11  1  0.78811012  0.21189286  0.10821603  1
  W  W12  1  0.49850252  0.50150046  0.75000010  1
  W  W13  1  0.50150046  0.49850252  0.25000003  1
