# generated using pymatgen
data_BaMoPt2
_symmetry_space_group_name_H-M   'P 1'
_cell_length_a   3.33261302
_cell_length_b   3.33261302
_cell_length_c   7.72780020
_cell_angle_alpha   90.00000000
_cell_angle_beta   90.00000000
_cell_angle_gamma   90.00000000
_symmetry_Int_Tables_number   1
_chemical_formula_structural   BaMoPt2
_chemical_formula_sum   'Ba1 Mo1 Pt2'
_cell_volume   85.82734132
_cell_formula_units_Z   1
loop_
 _symmetry_equiv_pos_site_id
 _symmetry_equiv_pos_as_xyz
  1  'x, y, z'
loop_
 _atom_site_type_symbol
 _atom_site_label
 _atom_site_symmetry_multiplicity
 _atom_site_fract_x
 _atom_site_fract_y
 _atom_site_fract_z
 _atom_site_occupancy
  Ba  Ba0  1  0.49999955  0.49999955  0.00000000  1
  Mo  Mo1  1  0.49999955  0.49999955  0.49999999  1
  Pt  Pt2  1  0.00000000  0.00000000  0.68041771  1
  Pt  Pt3  1  0.00000000  0.00000000  0.31958226  1
