# generated using pymatgen
data_PrAl3(BO3)4
_symmetry_space_group_name_H-M   'P 1'
_cell_length_a   5.97362977
_cell_length_b   5.97362977
_cell_length_c   11.21345743
_cell_angle_alpha   81.87869679
_cell_angle_beta   81.87869679
_cell_angle_gamma   104.41890302
_symmetry_Int_Tables_number   1
_chemical_formula_structural   PrAl3(BO3)4
_chemical_formula_sum   'Pr2 Al6 B8 O24'
_cell_volume   377.10055671
_cell_formula_units_Z   2
loop_
 _symmetry_equiv_pos_site_id
 _symmetry_equiv_pos_as_xyz
  1  'x, y, z'
loop_
 _atom_site_type_symbol
 _atom_site_label
 _atom_site_symmetry_multiplicity
 _atom_site_fract_x
 _atom_site_fract_y
 _atom_site_fract_z
 _atom_site_occupancy
  Pr  Pr0  1  0.96237908  0.03761879  0.75000073  1
  Pr  Pr1  1  0.03761915  0.96237944  0.25000055  1
  Al  Al2  1  0.69375151  0.19509625  0.02854721  1
  Al  Al3  1  0.80490234  0.30624708  0.47145388  1
  Al  Al4  1  0.58958978  0.41040881  0.25000055  1
  Al  Al5  1  0.19509589  0.69375115  0.52854740  1
  Al  Al6  1  0.30624672  0.80490198  0.97145407  1
  Al  Al7  1  0.41040844  0.58958942  0.75000073  1
  B  B8  1  0.12256208  0.49171408  0.22210734  1
  B  B9  1  0.50828452  0.87743652  0.27789375  1
  B  B10  1  0.87743615  0.50828415  0.77789394  1
  B  B11  1  0.49171371  0.12256171  0.72210752  1
  B  B12  1  0.77690384  0.71898821  0.00603946  1
  B  B13  1  0.28101039  0.22309475  0.49396163  1
  B  B14  1  0.22309439  0.28101002  0.99396181  1
  B  B15  1  0.71898784  0.77690348  0.50603965  1
  O  O16  1  0.49297043  0.69662765  0.57446574  1
  O  O17  1  0.89789482  0.42280131  0.29453073  1
  O  O18  1  0.57719728  0.10210377  0.20547037  1
  O  O19  1  0.10210341  0.57719692  0.70547055  1
  O  O20  1  0.00284097  0.80453070  0.93972184  1
  O  O21  1  0.99715726  0.19546753  0.06027944  1
  O  O22  1  0.80453106  0.00284133  0.43972165  1
  O  O23  1  0.30337022  0.50702743  0.92553572  1
  O  O24  1  0.19546717  0.99715690  0.56027963  1
  O  O25  1  0.42280095  0.89789446  0.79453091  1
  O  O26  1  0.50702780  0.30337058  0.42553554  1
  O  O27  1  0.18257638  0.69372893  0.13679734  1
  O  O28  1  0.69372857  0.18257601  0.63679752  1
  O  O29  1  0.81742185  0.30626930  0.86320394  1
  O  O30  1  0.30626966  0.81742222  0.36320375  1
  O  O31  1  0.63196467  0.86968709  0.99610409  1
  O  O32  1  0.13031078  0.36803320  0.50389737  1
  O  O33  1  0.86968745  0.63196503  0.49610391  1
  O  O34  1  0.27129096  0.35552500  0.24282403  1
  O  O35  1  0.64447359  0.72870763  0.25717706  1
  O  O36  1  0.72870727  0.64447323  0.75717725  1
  O  O37  1  0.35552464  0.27129060  0.74282422  1
  O  O38  1  0.69662801  0.49297080  0.07446556  1
  O  O39  1  0.36803356  0.13031114  0.00389719  1
