# generated using pymatgen
data_Ca2FeCuSeO3
_symmetry_space_group_name_H-M   'P 1'
_cell_length_a   3.86131375
_cell_length_b   3.86131375
_cell_length_c   15.75389130
_cell_angle_alpha   90.00000000
_cell_angle_beta   90.00000000
_cell_angle_gamma   90.00000000
_symmetry_Int_Tables_number   1
_chemical_formula_structural   Ca2FeCuSeO3
_chemical_formula_sum   'Ca4 Fe2 Cu2 Se2 O6'
_cell_volume   234.88648446
_cell_formula_units_Z   2
loop_
 _symmetry_equiv_pos_site_id
 _symmetry_equiv_pos_as_xyz
  1  'x, y, z'
loop_
 _atom_site_type_symbol
 _atom_site_label
 _atom_site_symmetry_multiplicity
 _atom_site_fract_x
 _atom_site_fract_y
 _atom_site_fract_z
 _atom_site_occupancy
  Ca  Ca0  1  0.74999927  0.74999927  0.20484400  1
  Ca  Ca1  1  0.24999976  0.24999976  0.79515592  1
  Ca  Ca2  1  0.74999927  0.74999927  0.41807933  1
  Ca  Ca3  1  0.24999976  0.24999976  0.58192059  1
  Fe  Fe4  1  0.24999976  0.24999976  0.31614467  1
  Fe  Fe5  1  0.74999927  0.74999927  0.68385525  1
  Cu  Cu6  1  0.24999976  0.74999927  0.00000000  1
  Cu  Cu7  1  0.74999927  0.24999976  0.00000000  1
  Se  Se8  1  0.24999976  0.24999976  0.10564648  1
  Se  Se9  1  0.74999927  0.74999927  0.89435344  1
  O  O10  1  0.24999976  0.74999927  0.29806107  1
  O  O11  1  0.74999927  0.24999976  0.29806107  1
  O  O12  1  0.74999927  0.24999976  0.70193885  1
  O  O13  1  0.24999976  0.74999927  0.70193885  1
  O  O14  1  0.24999976  0.24999976  0.43909305  1
  O  O15  1  0.74999927  0.74999927  0.56090687  1
