# generated using pymatgen
data_MgBeZn
_symmetry_space_group_name_H-M   'P 1'
_cell_length_a   2.89679788
_cell_length_b   2.89679788
_cell_length_c   6.30782128
_cell_angle_alpha   90.00000000
_cell_angle_beta   90.00000000
_cell_angle_gamma   119.99999652
_symmetry_Int_Tables_number   1
_chemical_formula_structural   MgBeZn
_chemical_formula_sum   'Mg1 Be1 Zn1'
_cell_volume   45.84019061
_cell_formula_units_Z   1
loop_
 _symmetry_equiv_pos_site_id
 _symmetry_equiv_pos_as_xyz
  1  'x, y, z'
loop_
 _atom_site_type_symbol
 _atom_site_label
 _atom_site_symmetry_multiplicity
 _atom_site_fract_x
 _atom_site_fract_y
 _atom_site_fract_z
 _atom_site_occupancy
  Mg  Mg0  1  0.33333337  0.66666731  0.31988353  1
  Be  Be1  1  0.00000000  0.00000000  0.98307544  1
  Zn  Zn2  1  0.66666731  0.33333337  0.69704063  1
