# generated using pymatgen
data_NdNi5
_symmetry_space_group_name_H-M   'P 1'
_cell_length_a   4.94208670
_cell_length_b   4.94453504
_cell_length_c   3.93989865
_cell_angle_alpha   90.00000000
_cell_angle_beta   90.00000000
_cell_angle_gamma   119.98362163
_symmetry_Int_Tables_number   1
_chemical_formula_structural   NdNi5
_chemical_formula_sum   'Nd1 Ni5'
_cell_volume   83.39176254
_cell_formula_units_Z   1
loop_
 _symmetry_equiv_pos_site_id
 _symmetry_equiv_pos_as_xyz
  1  'x, y, z'
loop_
 _atom_site_type_symbol
 _atom_site_label
 _atom_site_symmetry_multiplicity
 _atom_site_fract_x
 _atom_site_fract_y
 _atom_site_fract_z
 _atom_site_occupancy
  Nd  Nd0  1  0.00000000  0.00000000  0.00000000  1
  Ni  Ni1  1  0.66668718  0.33337598  0.00000000  1
  Ni  Ni2  1  0.33331108  0.66662381  0.00000000  1
  Ni  Ni3  1  -0.00000038  0.50000008  0.50000017  1
  Ni  Ni4  1  0.49999913  0.49999989  0.50000017  1
  Ni  Ni5  1  0.49999951  -0.00000019  0.50000017  1
