# generated using pymatgen
data_BaCuF4
_symmetry_space_group_name_H-M   'P 1'
_cell_length_a   7.37497829
_cell_length_b   7.37497829
_cell_length_c   5.65389413
_cell_angle_alpha   90.00000000
_cell_angle_beta   90.00000000
_cell_angle_gamma   145.32861780
_symmetry_Int_Tables_number   1
_chemical_formula_structural   BaCuF4
_chemical_formula_sum   'Ba2 Cu2 F8'
_cell_volume   174.93684443
_cell_formula_units_Z   2
loop_
 _symmetry_equiv_pos_site_id
 _symmetry_equiv_pos_as_xyz
  1  'x, y, z'
loop_
 _atom_site_type_symbol
 _atom_site_label
 _atom_site_symmetry_multiplicity
 _atom_site_fract_x
 _atom_site_fract_y
 _atom_site_fract_z
 _atom_site_occupancy
  Ba  Ba0  1  0.13724575  0.86275468  0.99594595  1
  Ba  Ba1  1  0.86275468  0.13724575  0.49594632  1
  Cu  Cu2  1  0.40627446  0.59372597  0.97125937  1
  Cu  Cu3  1  0.59372597  0.40627446  0.47125973  1
  F  F4  1  0.48029466  0.51970577  0.67085539  1
  F  F5  1  0.51970577  0.48029466  0.17085575  1
  F  F6  1  0.30019867  0.69980176  0.75119945  1
  F  F7  1  0.69980176  0.30019867  0.25119982  1
  F  F8  1  0.32255502  0.67744541  0.24323450  1
  F  F9  1  0.67744541  0.32255502  0.74323413  1
  F  F10  1  0.92252508  0.07747535  0.97440198  1
  F  F11  1  0.07747535  0.92252508  0.47440235  1
