# generated using pymatgen
data_Li2MnBe
_symmetry_space_group_name_H-M   'P 1'
_cell_length_a   4.83034260
_cell_length_b   4.83034260
_cell_length_c   4.83034260
_cell_angle_alpha   141.25156824
_cell_angle_beta   141.25156824
_cell_angle_gamma   55.95780914
_symmetry_Int_Tables_number   1
_chemical_formula_structural   Li2MnBe
_chemical_formula_sum   'Li2 Mn1 Be1'
_cell_volume   43.81275542
_cell_formula_units_Z   1
loop_
 _symmetry_equiv_pos_site_id
 _symmetry_equiv_pos_as_xyz
  1  'x, y, z'
loop_
 _atom_site_type_symbol
 _atom_site_label
 _atom_site_symmetry_multiplicity
 _atom_site_fract_x
 _atom_site_fract_y
 _atom_site_fract_z
 _atom_site_occupancy
  Li  Li0  1  0.00000000  0.00000000  0.00000000  1
  Li  Li1  1  0.49999953  0.49999953  0.00000000  1
  Mn  Mn2  1  0.24999976  0.74999927  0.49999951  1
  Be  Be3  1  0.74999927  0.24999976  0.49999951  1
