# generated using pymatgen
data_LaTaBe2
_symmetry_space_group_name_H-M   'P 1'
_cell_length_a   5.28482210
_cell_length_b   5.28482210
_cell_length_c   5.28482210
_cell_angle_alpha   135.75712439
_cell_angle_beta   135.75712439
_cell_angle_gamma   64.35604900
_symmetry_Int_Tables_number   1
_chemical_formula_structural   LaTaBe2
_chemical_formula_sum   'La1 Ta1 Be2'
_cell_volume   70.86291297
_cell_formula_units_Z   1
loop_
 _symmetry_equiv_pos_site_id
 _symmetry_equiv_pos_as_xyz
  1  'x, y, z'
loop_
 _atom_site_type_symbol
 _atom_site_label
 _atom_site_symmetry_multiplicity
 _atom_site_fract_x
 _atom_site_fract_y
 _atom_site_fract_z
 _atom_site_occupancy
  La  La0  1  0.49999998  0.49999998  0.00000000  1
  Ta  Ta1  1  0.74999993  0.24999999  0.49999994  1
  Be  Be2  1  0.00000000  0.00000000  0.00000000  1
  Be  Be3  1  0.24999999  0.74999993  0.49999994  1
