# generated using pymatgen
data_K2BePd
_symmetry_space_group_name_H-M   'P 1'
_cell_length_a   5.14893620
_cell_length_b   5.14893620
_cell_length_c   5.14893620
_cell_angle_alpha   120.00139713
_cell_angle_beta   120.00139713
_cell_angle_gamma   89.99758011
_symmetry_Int_Tables_number   1
_chemical_formula_structural   K2BePd
_chemical_formula_sum   'K2 Be1 Pd1'
_cell_volume   96.52245568
_cell_formula_units_Z   1
loop_
 _symmetry_equiv_pos_site_id
 _symmetry_equiv_pos_as_xyz
  1  'x, y, z'
loop_
 _atom_site_type_symbol
 _atom_site_label
 _atom_site_symmetry_multiplicity
 _atom_site_fract_x
 _atom_site_fract_y
 _atom_site_fract_z
 _atom_site_occupancy
  K  K0  1  0.00000000  0.00000000  0.00000000  1
  K  K1  1  0.24999968  0.74999896  0.49999927  1
  Be  Be2  1  0.74999896  0.24999968  0.49999927  1
  Pd  Pd3  1  0.49999937  0.49999937  0.00000000  1
