# generated using pymatgen
data_YSiPd2
_symmetry_space_group_name_H-M   'P 1'
_cell_length_a   5.52628019
_cell_length_b   6.98375386
_cell_length_c   7.35695807
_cell_angle_alpha   90.00000000
_cell_angle_beta   90.00000000
_cell_angle_gamma   90.00000000
_symmetry_Int_Tables_number   1
_chemical_formula_structural   YSiPd2
_chemical_formula_sum   'Y4 Si4 Pd8'
_cell_volume   283.93576849
_cell_formula_units_Z   4
loop_
 _symmetry_equiv_pos_site_id
 _symmetry_equiv_pos_as_xyz
  1  'x, y, z'
loop_
 _atom_site_type_symbol
 _atom_site_label
 _atom_site_symmetry_multiplicity
 _atom_site_fract_x
 _atom_site_fract_y
 _atom_site_fract_z
 _atom_site_occupancy
  Y  Y0  1  0.14084440  0.74999959  0.02911577  1
  Y  Y1  1  0.64084438  0.24999986  0.47088436  1
  Y  Y2  1  0.85915557  0.24999986  0.97088449  1
  Y  Y3  1  0.35915559  0.74999959  0.52911590  1
  Si  Si4  1  0.85767500  0.74999959  0.37856945  1
  Si  Si5  1  0.35767501  0.24999986  0.12143068  1
  Si  Si6  1  0.14232497  0.24999986  0.62143081  1
  Si  Si7  1  0.64232495  0.74999959  0.87856958  1
  Pd  Pd8  1  0.59356071  0.94860990  0.17876228  1
  Pd  Pd9  1  0.09356073  0.05138954  0.32123785  1
  Pd  Pd10  1  0.40643925  0.44861018  0.82123798  1
  Pd  Pd11  1  0.90643924  0.55138927  0.67876241  1
  Pd  Pd12  1  0.40643925  0.05138954  0.82123798  1
  Pd  Pd13  1  0.90643924  0.94860990  0.67876241  1
  Pd  Pd14  1  0.59356071  0.55138927  0.17876228  1
  Pd  Pd15  1  0.09356073  0.44861018  0.32123785  1
