# generated using pymatgen
data_NaBe2Cl
_symmetry_space_group_name_H-M   'P 1'
_cell_length_a   5.07763600
_cell_length_b   5.07763600
_cell_length_c   5.07763600
_cell_angle_alpha   132.44185109
_cell_angle_beta   132.44185109
_cell_angle_gamma   69.53206001
_symmetry_Int_Tables_number   1
_chemical_formula_structural   NaBe2Cl
_chemical_formula_sum   'Na1 Be2 Cl1'
_cell_volume   69.93757775
_cell_formula_units_Z   1
loop_
 _symmetry_equiv_pos_site_id
 _symmetry_equiv_pos_as_xyz
  1  'x, y, z'
loop_
 _atom_site_type_symbol
 _atom_site_label
 _atom_site_symmetry_multiplicity
 _atom_site_fract_x
 _atom_site_fract_y
 _atom_site_fract_z
 _atom_site_occupancy
  Na  Na0  1  0.74999994  0.24999975  0.50000019  1
  Be  Be1  1  0.00000000  0.00000000  0.00000000  1
  Be  Be2  1  0.24999975  0.74999994  0.50000019  1
  Cl  Cl3  1  0.49999950  0.49999950  0.00000000  1
