# generated using pymatgen
data_CoF3
_symmetry_space_group_name_H-M   'P 1'
_cell_length_a   5.10005075
_cell_length_b   5.29556501
_cell_length_c   7.72770387
_cell_angle_alpha   63.99118313
_cell_angle_beta   90.00000000
_cell_angle_gamma   118.78601791
_symmetry_Int_Tables_number   1
_chemical_formula_structural   CoF3
_chemical_formula_sum   'Co3 F9'
_cell_volume   158.37403842
_cell_formula_units_Z   3
loop_
 _symmetry_equiv_pos_site_id
 _symmetry_equiv_pos_as_xyz
  1  'x, y, z'
loop_
 _atom_site_type_symbol
 _atom_site_label
 _atom_site_symmetry_multiplicity
 _atom_site_fract_x
 _atom_site_fract_y
 _atom_site_fract_z
 _atom_site_occupancy
  Co  Co0  1  0.00471094  0.00000001  -0.00000000  1
  Co  Co1  1  0.58926535  0.20454542  0.64344095  1
  Co  Co2  1  0.38472139  0.79545646  0.35655881  1
  F  F3  1  0.61120224  0.00000092  0.49999961  1
  F  F4  1  0.97223711  0.60876643  0.52432989  1
  F  F5  1  0.36347179  0.39123596  0.47566978  1
  F  F6  1  0.79930228  0.56806210  0.17139998  1
  F  F7  1  0.29571976  0.06708037  0.14492339  1
  F  F8  1  0.78432246  0.04915089  0.15615204  1
  F  F9  1  0.23124113  0.43193986  0.82859977  1
  F  F10  1  0.22864075  0.93292088  0.85507647  1
  F  F11  1  0.73517366  0.95085176  0.84384759  1
