# generated using pymatgen
data_VCoSi
_symmetry_space_group_name_H-M   'P 1'
_cell_length_a   3.55447274
_cell_length_b   5.96432935
_cell_length_c   6.82181094
_cell_angle_alpha   90.00000000
_cell_angle_beta   90.00000000
_cell_angle_gamma   90.00000000
_symmetry_Int_Tables_number   1
_chemical_formula_structural   VCoSi
_chemical_formula_sum   'V4 Co4 Si4'
_cell_volume   144.62270623
_cell_formula_units_Z   4
loop_
 _symmetry_equiv_pos_site_id
 _symmetry_equiv_pos_as_xyz
  1  'x, y, z'
loop_
 _atom_site_type_symbol
 _atom_site_label
 _atom_site_symmetry_multiplicity
 _atom_site_fract_x
 _atom_site_fract_y
 _atom_site_fract_z
 _atom_site_occupancy
  V  V0  1  0.24999981  0.02502637  0.17801680  1
  V  V1  1  0.74999942  0.47497368  0.67801673  1
  V  V2  1  0.74999942  0.97497374  0.82198306  1
  V  V3  1  0.24999981  0.52502643  0.32198313  1
  Co  Co4  1  0.24999981  0.14318751  0.56141361  1
  Co  Co5  1  0.74999942  0.35681255  0.06141368  1
  Co  Co6  1  0.74999942  0.85681260  0.43858625  1
  Co  Co7  1  0.24999981  0.64318756  0.93858618  1
  Si  Si8  1  0.24999981  0.26693576  0.87663527  1
  Si  Si9  1  0.74999942  0.23306429  0.37663534  1
  Si  Si10  1  0.74999942  0.73306435  0.12336459  1
  Si  Si11  1  0.24999981  0.76693582  0.62336452  1
