# generated using pymatgen
data_Sr2ZrBe
_symmetry_space_group_name_H-M   'P 1'
_cell_length_a   5.40000574
_cell_length_b   5.40000574
_cell_length_c   5.40000574
_cell_angle_alpha   120.01215769
_cell_angle_beta   120.01215769
_cell_angle_gamma   89.97894355
_symmetry_Int_Tables_number   1
_chemical_formula_structural   Sr2ZrBe
_chemical_formula_sum   'Sr2 Zr1 Be1'
_cell_volume   111.32374806
_cell_formula_units_Z   1
loop_
 _symmetry_equiv_pos_site_id
 _symmetry_equiv_pos_as_xyz
  1  'x, y, z'
loop_
 _atom_site_type_symbol
 _atom_site_label
 _atom_site_symmetry_multiplicity
 _atom_site_fract_x
 _atom_site_fract_y
 _atom_site_fract_z
 _atom_site_occupancy
  Sr  Sr0  1  0.00000000  0.00000000  0.00000000  1
  Sr  Sr1  1  0.24999985  0.75000047  0.50000061  1
  Zr  Zr2  1  0.49999971  0.49999971  0.00000000  1
  Be  Be3  1  0.75000047  0.24999985  0.50000061  1
