# generated using pymatgen
data_BeTl2Fe
_symmetry_space_group_name_H-M   'P 1'
_cell_length_a   5.55441768
_cell_length_b   5.55441768
_cell_length_c   5.55441768
_cell_angle_alpha   138.75673154
_cell_angle_beta   138.75673154
_cell_angle_gamma   59.74598332
_symmetry_Int_Tables_number   1
_chemical_formula_structural   BeTl2Fe
_chemical_formula_sum   'Be1 Tl2 Fe1'
_cell_volume   73.72710263
_cell_formula_units_Z   1
loop_
 _symmetry_equiv_pos_site_id
 _symmetry_equiv_pos_as_xyz
  1  'x, y, z'
loop_
 _atom_site_type_symbol
 _atom_site_label
 _atom_site_symmetry_multiplicity
 _atom_site_fract_x
 _atom_site_fract_y
 _atom_site_fract_z
 _atom_site_occupancy
  Be  Be0  1  0.49999987  0.49999987  0.00000000  1
  Tl  Tl1  1  0.00000000  0.00000000  0.00000000  1
  Tl  Tl2  1  0.24999993  0.75000031  0.50000038  1
  Fe  Fe3  1  0.75000031  0.24999993  0.50000038  1
