# generated using pymatgen
data_LaHgPd
_symmetry_space_group_name_H-M   'P 1'
_cell_length_a   7.88264850
_cell_length_b   7.88264850
_cell_length_c   4.02809038
_cell_angle_alpha   90.00000000
_cell_angle_beta   90.00000000
_cell_angle_gamma   119.99999011
_symmetry_Int_Tables_number   1
_chemical_formula_structural   LaHgPd
_chemical_formula_sum   'La3 Hg3 Pd3'
_cell_volume   216.75753554
_cell_formula_units_Z   3
loop_
 _symmetry_equiv_pos_site_id
 _symmetry_equiv_pos_as_xyz
  1  'x, y, z'
loop_
 _atom_site_type_symbol
 _atom_site_label
 _atom_site_symmetry_multiplicity
 _atom_site_fract_x
 _atom_site_fract_y
 _atom_site_fract_z
 _atom_site_occupancy
  La  La0  1  0.60046602  0.00000006  0.49999995  1
  La  La1  1  0.00000006  0.60046602  0.49999995  1
  La  La2  1  0.39953318  0.39953318  0.49999995  1
  Hg  Hg3  1  0.26137285  0.00000045  0.00000000  1
  Hg  Hg4  1  0.00000045  0.26137285  0.00000000  1
  Hg  Hg5  1  0.73862528  0.73862528  0.00000000  1
  Pd  Pd6  1  0.33333243  0.66666651  0.00000000  1
  Pd  Pd7  1  0.66666651  0.33333243  0.00000000  1
  Pd  Pd8  1  -0.00000046  -0.00000046  0.49999995  1
