# generated using pymatgen
data_Y5Pb3
_symmetry_space_group_name_H-M   'P 1'
_cell_length_a   9.06143795
_cell_length_b   9.06143795
_cell_length_c   6.66001391
_cell_angle_alpha   90.00000000
_cell_angle_beta   90.00000000
_cell_angle_gamma   120.00004545
_symmetry_Int_Tables_number   1
_chemical_formula_structural   Y5Pb3
_chemical_formula_sum   'Y10 Pb6'
_cell_volume   473.58704166
_cell_formula_units_Z   2
loop_
 _symmetry_equiv_pos_site_id
 _symmetry_equiv_pos_as_xyz
  1  'x, y, z'
loop_
 _atom_site_type_symbol
 _atom_site_label
 _atom_site_symmetry_multiplicity
 _atom_site_fract_x
 _atom_site_fract_y
 _atom_site_fract_z
 _atom_site_occupancy
  Y  Y0  1  0.33333283  0.66666808  0.00000000  1
  Y  Y1  1  0.66666808  0.33333283  0.49999971  1
  Y  Y2  1  0.66666808  0.33333283  0.00000000  1
  Y  Y3  1  0.33333283  0.66666808  0.49999971  1
  Y  Y4  1  0.23768302  0.00000147  0.24999985  1
  Y  Y5  1  0.00000147  0.23768302  0.24999985  1
  Y  Y6  1  0.76231760  0.76231760  0.24999985  1
  Y  Y7  1  0.76231789  0.99999944  0.74999956  1
  Y  Y8  1  0.99999944  0.76231789  0.74999956  1
  Y  Y9  1  0.23768331  0.23768331  0.74999956  1
  Pb  Pb10  1  0.60593554  1.00000063  0.24999985  1
  Pb  Pb11  1  1.00000063  0.60593554  0.24999985  1
  Pb  Pb12  1  0.39406789  0.39406789  0.24999985  1
  Pb  Pb13  1  0.39406537  0.00000028  0.74999956  1
  Pb  Pb14  1  0.00000028  0.39406537  0.74999956  1
  Pb  Pb15  1  0.60593303  0.60593303  0.74999956  1
