# generated using pymatgen
data_LaGaPd2
_symmetry_space_group_name_H-M   'P 1'
_cell_length_a   5.90040004
_cell_length_b   7.09145591
_cell_length_c   7.67884150
_cell_angle_alpha   90.00000000
_cell_angle_beta   90.00000000
_cell_angle_gamma   90.00000000
_symmetry_Int_Tables_number   1
_chemical_formula_structural   LaGaPd2
_chemical_formula_sum   'La4 Ga4 Pd8'
_cell_volume   321.30136247
_cell_formula_units_Z   4
loop_
 _symmetry_equiv_pos_site_id
 _symmetry_equiv_pos_as_xyz
  1  'x, y, z'
loop_
 _atom_site_type_symbol
 _atom_site_label
 _atom_site_symmetry_multiplicity
 _atom_site_fract_x
 _atom_site_fract_y
 _atom_site_fract_z
 _atom_site_occupancy
  La  La0  1  0.65232384  0.75000043  0.03393001  1
  La  La1  1  0.15232384  0.25000014  0.46606989  1
  La  La2  1  0.34767615  0.25000014  0.96606980  1
  La  La3  1  0.84767615  0.75000043  0.53392991  1
  Ga  Ga4  1  0.34625064  0.75000043  0.38023025  1
  Ga  Ga5  1  0.84625064  0.25000014  0.11976966  1
  Ga  Ga6  1  0.65374935  0.25000014  0.61976956  1
  Ga  Ga7  1  0.15374936  0.75000043  0.88023015  1
  Pd  Pd8  1  0.08710675  0.94789122  0.17797813  1
  Pd  Pd9  1  0.58710675  0.05210936  0.32202177  1
  Pd  Pd10  1  0.91289325  0.44789093  0.82202167  1
  Pd  Pd11  1  0.41289325  0.55210964  0.67797803  1
  Pd  Pd12  1  0.91289325  0.05210936  0.82202167  1
  Pd  Pd13  1  0.41289325  0.94789122  0.67797803  1
  Pd  Pd14  1  0.08710675  0.55210964  0.17797813  1
  Pd  Pd15  1  0.58710675  0.44789093  0.32202177  1
