# generated using pymatgen
data_Y2BeIn
_symmetry_space_group_name_H-M   'P 1'
_cell_length_a   5.91209119
_cell_length_b   5.91209119
_cell_length_c   5.91209119
_cell_angle_alpha   136.96670623
_cell_angle_beta   136.96670623
_cell_angle_gamma   62.48928046
_symmetry_Int_Tables_number   1
_chemical_formula_structural   Y2BeIn
_chemical_formula_sum   'Y2 Be1 In1'
_cell_volume   95.06499130
_cell_formula_units_Z   1
loop_
 _symmetry_equiv_pos_site_id
 _symmetry_equiv_pos_as_xyz
  1  'x, y, z'
loop_
 _atom_site_type_symbol
 _atom_site_label
 _atom_site_symmetry_multiplicity
 _atom_site_fract_x
 _atom_site_fract_y
 _atom_site_fract_z
 _atom_site_occupancy
  Y  Y0  1  0.00000000  0.00000000  0.00000000  1
  Y  Y1  1  0.24999981  0.75000055  0.50000074  1
  Be  Be2  1  0.49999962  0.49999962  0.00000000  1
  In  In3  1  0.75000055  0.24999981  0.50000074  1
