# generated using pymatgen
data_LaGe
_symmetry_space_group_name_H-M   'P 1'
_cell_length_a   7.30047910
_cell_length_b   7.30047910
_cell_length_c   6.79054921
_cell_angle_alpha   90.00000000
_cell_angle_beta   90.00000000
_cell_angle_gamma   143.52854534
_symmetry_Int_Tables_number   1
_chemical_formula_structural   LaGe
_chemical_formula_sum   'La4 Ge4'
_cell_volume   215.13083499
_cell_formula_units_Z   4
loop_
 _symmetry_equiv_pos_site_id
 _symmetry_equiv_pos_as_xyz
  1  'x, y, z'
loop_
 _atom_site_type_symbol
 _atom_site_label
 _atom_site_symmetry_multiplicity
 _atom_site_fract_x
 _atom_site_fract_y
 _atom_site_fract_z
 _atom_site_occupancy
  La  La0  1  0.04729889  0.95270171  0.25000003  1
  La  La1  1  0.95270171  0.04729889  0.75000009  1
  La  La2  1  0.22577237  0.77422822  0.75000009  1
  La  La3  1  0.77422822  0.22577237  0.25000003  1
  Ge  Ge4  1  0.39980140  0.60019920  0.44599767  1
  Ge  Ge5  1  0.60019920  0.39980140  0.94599773  1
  Ge  Ge6  1  0.39980140  0.60019920  0.05400238  1
  Ge  Ge7  1  0.60019920  0.39980140  0.55400244  1
