# generated using pymatgen
data_Er(MnAl2)4
_symmetry_space_group_name_H-M   'P 1'
_cell_length_a   6.65869578
_cell_length_b   6.65869578
_cell_length_c   6.65869578
_cell_angle_alpha   97.88156336
_cell_angle_beta   97.88156336
_cell_angle_gamma   136.53113943
_symmetry_Int_Tables_number   1
_chemical_formula_structural   Er(MnAl2)4
_chemical_formula_sum   'Er1 Mn4 Al8'
_cell_volume   188.67076053
_cell_formula_units_Z   1
loop_
 _symmetry_equiv_pos_site_id
 _symmetry_equiv_pos_as_xyz
  1  'x, y, z'
loop_
 _atom_site_type_symbol
 _atom_site_label
 _atom_site_symmetry_multiplicity
 _atom_site_fract_x
 _atom_site_fract_y
 _atom_site_fract_z
 _atom_site_occupancy
  Er  Er0  1  0.00000000  0.00000000  0.00000000  1
  Mn  Mn1  1  -0.00000010  -0.00000010  0.50000010  1
  Mn  Mn2  1  0.50000020  0.50000020  0.50000010  1
  Mn  Mn3  1  0.50000020  0.00000010  0.00000000  1
  Mn  Mn4  1  0.00000010  0.50000020  0.00000000  1
  Al  Al5  1  0.34036991  -0.00000000  0.34036991  1
  Al  Al6  1  0.65963028  -0.00000000  0.65963028  1
  Al  Al7  1  -0.00000000  0.34036991  0.34036991  1
  Al  Al8  1  -0.00000000  0.65963028  0.65963028  1
  Al  Al9  1  0.28195064  0.50000010  0.78195074  1
  Al  Al10  1  0.71804976  0.50000030  0.21804946  1
  Al  Al11  1  0.50000010  0.28195064  0.78195074  1
  Al  Al12  1  0.50000030  0.71804976  0.21804946  1
