# generated using pymatgen
data_ErMgPd
_symmetry_space_group_name_H-M   'P 1'
_cell_length_a   7.37771885
_cell_length_b   7.37768295
_cell_length_c   4.00792932
_cell_angle_alpha   90.00000000
_cell_angle_beta   90.00000000
_cell_angle_gamma   120.00016097
_symmetry_Int_Tables_number   1
_chemical_formula_structural   ErMgPd
_chemical_formula_sum   'Er3 Mg3 Pd3'
_cell_volume   188.92614866
_cell_formula_units_Z   3
loop_
 _symmetry_equiv_pos_site_id
 _symmetry_equiv_pos_as_xyz
  1  'x, y, z'
loop_
 _atom_site_type_symbol
 _atom_site_label
 _atom_site_symmetry_multiplicity
 _atom_site_fract_x
 _atom_site_fract_y
 _atom_site_fract_z
 _atom_site_occupancy
  Er  Er0  1  0.00000082  0.41168318  0.50000008  1
  Er  Er1  1  0.58831729  0.58831638  0.50000008  1
  Er  Er2  1  0.41168389  0.00000009  0.50000008  1
  Mg  Mg3  1  0.00000071  0.75368623  0.00000000  1
  Mg  Mg4  1  0.24631422  0.24631326  0.00000000  1
  Mg  Mg5  1  0.75368498  0.00000017  0.00000000  1
  Pd  Pd6  1  0.66666669  0.33333434  0.00000000  1
  Pd  Pd7  1  0.33333222  0.66666532  0.00000000  1
  Pd  Pd8  1  0.99999772  0.00000023  0.50000008  1
