# generated using pymatgen
data_Mg5Hg3
_symmetry_space_group_name_H-M   'P 1'
_cell_length_a   8.27175222
_cell_length_b   8.27163515
_cell_length_c   5.98804884
_cell_angle_alpha   90.00000000
_cell_angle_beta   90.00000000
_cell_angle_gamma   120.00046816
_symmetry_Int_Tables_number   1
_chemical_formula_structural   Mg5Hg3
_chemical_formula_sum   'Mg10 Hg6'
_cell_volume   354.81567993
_cell_formula_units_Z   2
loop_
 _symmetry_equiv_pos_site_id
 _symmetry_equiv_pos_as_xyz
  1  'x, y, z'
loop_
 _atom_site_type_symbol
 _atom_site_label
 _atom_site_symmetry_multiplicity
 _atom_site_fract_x
 _atom_site_fract_y
 _atom_site_fract_z
 _atom_site_occupancy
  Mg  Mg0  1  0.66666184  0.33332299  0.00000000  1
  Mg  Mg1  1  0.33333891  0.66667742  0.50000010  1
  Mg  Mg2  1  0.33333891  0.66667742  0.00000000  1
  Mg  Mg3  1  0.66666184  0.33332299  0.50000010  1
  Mg  Mg4  1  -0.00000120  0.74435565  0.25000005  1
  Mg  Mg5  1  0.25564335  0.25564455  0.25000005  1
  Mg  Mg6  1  0.74435813  0.00000022  0.25000005  1
  Mg  Mg7  1  0.00000132  0.25564447  0.75000014  1
  Mg  Mg8  1  0.74435741  0.74435587  0.75000014  1
  Mg  Mg9  1  0.25564251  0.00000008  0.75000014  1
  Hg  Hg10  1  0.00000606  0.38556011  0.25000005  1
  Hg  Hg11  1  0.61444642  0.61444019  0.25000005  1
  Hg  Hg12  1  0.38554878  0.00000012  0.25000005  1
  Hg  Hg13  1  -0.00000595  0.61444001  0.75000014  1
  Hg  Hg14  1  0.38555434  0.38556022  0.75000014  1
  Hg  Hg15  1  0.61445187  0.00000018  0.75000014  1
