# generated using pymatgen
data_Ti2H3Pd
_symmetry_space_group_name_H-M   'P 1'
_cell_length_a   2.90658897
_cell_length_b   2.90658897
_cell_length_c   12.93823646
_cell_angle_alpha   90.00000000
_cell_angle_beta   90.00000000
_cell_angle_gamma   90.00000000
_symmetry_Int_Tables_number   1
_chemical_formula_structural   Ti2H3Pd
_chemical_formula_sum   'Ti4 H6 Pd2'
_cell_volume   109.30557841
_cell_formula_units_Z   2
loop_
 _symmetry_equiv_pos_site_id
 _symmetry_equiv_pos_as_xyz
  1  'x, y, z'
loop_
 _atom_site_type_symbol
 _atom_site_label
 _atom_site_symmetry_multiplicity
 _atom_site_fract_x
 _atom_site_fract_y
 _atom_site_fract_z
 _atom_site_occupancy
  Ti  Ti0  1  0.00000000  0.00000000  0.33836648  1
  Ti  Ti1  1  0.00000000  0.00000000  0.66161693  1
  Ti  Ti2  1  0.50000018  0.50000018  0.85498845  1
  Ti  Ti3  1  0.50000018  0.50000018  0.14499542  1
  H  H4  1  0.00000000  0.50000018  0.23874464  1
  H  H5  1  0.50000018  0.00000000  0.23874464  1
  H  H6  1  0.50000018  0.00000000  0.76123902  1
  H  H7  1  0.00000000  0.50000018  0.76123902  1
  H  H8  1  0.50000018  0.50000018  0.36407355  1
  H  H9  1  0.50000018  0.50000018  0.63591000  1
  Pd  Pd10  1  0.00000000  0.00000000  0.99999208  1
  Pd  Pd11  1  0.50000018  0.50000018  0.49999153  1
