# generated using pymatgen
data_KFe2Se3
_symmetry_space_group_name_H-M   'P 1'
_cell_length_a   7.21549439
_cell_length_b   7.21549439
_cell_length_c   5.35046477
_cell_angle_alpha   90.00000000
_cell_angle_beta   90.00000000
_cell_angle_gamma   103.30626262
_symmetry_Int_Tables_number   1
_chemical_formula_structural   KFe2Se3
_chemical_formula_sum   'K2 Fe4 Se6'
_cell_volume   271.08478580
_cell_formula_units_Z   2
loop_
 _symmetry_equiv_pos_site_id
 _symmetry_equiv_pos_as_xyz
  1  'x, y, z'
loop_
 _atom_site_type_symbol
 _atom_site_label
 _atom_site_symmetry_multiplicity
 _atom_site_fract_x
 _atom_site_fract_y
 _atom_site_fract_z
 _atom_site_occupancy
  K  K0  1  0.67265232  0.32734708  0.24999978  1
  K  K1  1  0.32734708  0.67265232  0.74999933  1
  Fe  Fe2  1  0.14554590  0.14554590  0.00000000  1
  Fe  Fe3  1  0.85445350  0.85445350  0.49999955  1
  Fe  Fe4  1  0.85445350  0.85445350  0.00000000  1
  Fe  Fe5  1  0.14554590  0.14554590  0.49999955  1
  Se  Se6  1  0.12022179  0.87977761  0.24999978  1
  Se  Se7  1  0.87977761  0.12022179  0.74999933  1
  Se  Se8  1  0.17690840  0.40289778  0.24999978  1
  Se  Se9  1  0.82309101  0.59710162  0.74999933  1
  Se  Se10  1  0.59710162  0.82309101  0.24999978  1
  Se  Se11  1  0.40289778  0.17690840  0.74999933  1
