# generated using pymatgen
data_BeTl2Fe
_symmetry_space_group_name_H-M   'P 1'
_cell_length_a   3.14777716
_cell_length_b   3.14777716
_cell_length_c   7.87702938
_cell_angle_alpha   90.00000000
_cell_angle_beta   90.00000000
_cell_angle_gamma   90.00000000
_symmetry_Int_Tables_number   1
_chemical_formula_structural   BeTl2Fe
_chemical_formula_sum   'Be1 Tl2 Fe1'
_cell_volume   78.04955406
_cell_formula_units_Z   1
loop_
 _symmetry_equiv_pos_site_id
 _symmetry_equiv_pos_as_xyz
  1  'x, y, z'
loop_
 _atom_site_type_symbol
 _atom_site_label
 _atom_site_symmetry_multiplicity
 _atom_site_fract_x
 _atom_site_fract_y
 _atom_site_fract_z
 _atom_site_occupancy
  Be  Be0  1  0.00000000  0.00000000  0.59965155  1
  Tl  Tl1  1  0.00000000  0.00000000  0.93773270  1
  Tl  Tl2  1  0.50000045  0.50000045  0.30280505  1
  Fe  Fe3  1  0.50000045  0.50000045  0.65981090  1
