# generated using pymatgen
data_VNiGe
_symmetry_space_group_name_H-M   'P 1'
_cell_length_a   3.60675883
_cell_length_b   6.10546285
_cell_length_c   7.11772251
_cell_angle_alpha   90.00000000
_cell_angle_beta   90.00000000
_cell_angle_gamma   90.00000000
_symmetry_Int_Tables_number   1
_chemical_formula_structural   VNiGe
_chemical_formula_sum   'V4 Ni4 Ge4'
_cell_volume   156.73888338
_cell_formula_units_Z   4
loop_
 _symmetry_equiv_pos_site_id
 _symmetry_equiv_pos_as_xyz
  1  'x, y, z'
loop_
 _atom_site_type_symbol
 _atom_site_label
 _atom_site_symmetry_multiplicity
 _atom_site_fract_x
 _atom_site_fract_y
 _atom_site_fract_z
 _atom_site_occupancy
  V  V0  1  0.25000008  0.02898479  0.83678773  1
  V  V1  1  0.75000024  0.47101498  0.33678790  1
  V  V2  1  0.75000024  0.97101475  0.16321192  1
  V  V3  1  0.25000008  0.52898455  0.66321174  1
  Ni  Ni4  1  0.25000008  0.14709609  0.44083897  1
  Ni  Ni5  1  0.75000024  0.35290368  0.94083879  1
  Ni  Ni6  1  0.75000024  0.85290345  0.55916068  1
  Ni  Ni7  1  0.25000008  0.64709586  0.05916086  1
  Ge  Ge8  1  0.25000008  0.76756523  0.36737222  1
  Ge  Ge9  1  0.75000024  0.73243407  0.86737205  1
  Ge  Ge10  1  0.75000024  0.23243430  0.63262743  1
  Ge  Ge11  1  0.25000008  0.26756547  0.13262760  1
