# generated using pymatgen
data_CeGeIr
_symmetry_space_group_name_H-M   'P 1'
_cell_length_a   4.40300707
_cell_length_b   7.05815190
_cell_length_c   7.67655540
_cell_angle_alpha   90.00000000
_cell_angle_beta   90.00000000
_cell_angle_gamma   90.00000000
_symmetry_Int_Tables_number   1
_chemical_formula_structural   CeGeIr
_chemical_formula_sum   'Ce4 Ge4 Ir4'
_cell_volume   238.56502384
_cell_formula_units_Z   4
loop_
 _symmetry_equiv_pos_site_id
 _symmetry_equiv_pos_as_xyz
  1  'x, y, z'
loop_
 _atom_site_type_symbol
 _atom_site_label
 _atom_site_symmetry_multiplicity
 _atom_site_fract_x
 _atom_site_fract_y
 _atom_site_fract_z
 _atom_site_occupancy
  Ce  Ce0  1  0.25000017  0.98612605  0.30026726  1
  Ce  Ce1  1  0.75000050  0.51387355  0.80026756  1
  Ce  Ce2  1  0.75000050  0.01387368  0.69973334  1
  Ce  Ce3  1  0.25000017  0.48612618  0.19973304  1
  Ge  Ge4  1  0.25000017  0.32243098  0.58243889  1
  Ge  Ge5  1  0.75000050  0.17756888  0.08243859  1
  Ge  Ge6  1  0.75000050  0.67756875  0.41756171  1
  Ge  Ge7  1  0.25000017  0.82243085  0.91756201  1
  Ir  Ir8  1  0.25000017  0.71928270  0.59047215  1
  Ir  Ir9  1  0.75000050  0.78071689  0.09047185  1
  Ir  Ir10  1  0.75000050  0.28071703  0.40952845  1
  Ir  Ir11  1  0.25000017  0.21928284  0.90952875  1
