# generated using pymatgen
data_CeRhC2
_symmetry_space_group_name_H-M   'P 1'
_cell_length_a   3.94907689
_cell_length_b   3.94907689
_cell_length_c   15.54465910
_cell_angle_alpha   90.00000000
_cell_angle_beta   90.00000000
_cell_angle_gamma   90.00000000
_symmetry_Int_Tables_number   1
_chemical_formula_structural   CeRhC2
_chemical_formula_sum   'Ce4 Rh4 C8'
_cell_volume   242.42219685
_cell_formula_units_Z   4
loop_
 _symmetry_equiv_pos_site_id
 _symmetry_equiv_pos_as_xyz
  1  'x, y, z'
loop_
 _atom_site_type_symbol
 _atom_site_label
 _atom_site_symmetry_multiplicity
 _atom_site_fract_x
 _atom_site_fract_y
 _atom_site_fract_z
 _atom_site_occupancy
  Ce  Ce0  1  0.35646054  0.36179437  -0.00101502  1
  Ce  Ce1  1  0.64354023  0.63820642  0.49898501  1
  Ce  Ce2  1  0.63820641  0.35646055  0.74898502  1
  Ce  Ce3  1  0.36179436  0.64354024  0.24898499  1
  Rh  Rh4  1  0.14193513  0.15214660  0.59352932  1
  Rh  Rh5  1  0.85806564  0.84785419  0.09352929  1
  Rh  Rh6  1  0.84785418  0.14193515  0.34352930  1
  Rh  Rh7  1  0.15214659  0.85806565  0.84352933  1
  C  C8  1  0.15339726  0.15217356  0.45989625  1
  C  C9  1  0.84660352  0.84782723  0.95989628  1
  C  C10  1  0.84782722  0.15339727  0.20989624  1
  C  C11  1  0.15217355  0.84660353  0.70989626  1
  C  C12  1  0.14481327  0.64436047  0.63908956  1
  C  C13  1  0.85518751  0.35564033  0.13908953  1
  C  C14  1  0.35564032  0.14481328  0.38908954  1
  C  C15  1  0.64436045  0.85518752  0.88908957  1
