# generated using pymatgen
data_Li2HN
_symmetry_space_group_name_H-M   'P 1'
_cell_length_a   3.58353361
_cell_length_b   4.82926975
_cell_length_c   7.65886672
_cell_angle_alpha   90.00000000
_cell_angle_beta   90.00000000
_cell_angle_gamma   90.00000000
_symmetry_Int_Tables_number   1
_chemical_formula_structural   Li2HN
_chemical_formula_sum   'Li8 H4 N4'
_cell_volume   132.54320195
_cell_formula_units_Z   4
loop_
 _symmetry_equiv_pos_site_id
 _symmetry_equiv_pos_as_xyz
  1  'x, y, z'
loop_
 _atom_site_type_symbol
 _atom_site_label
 _atom_site_symmetry_multiplicity
 _atom_site_fract_x
 _atom_site_fract_y
 _atom_site_fract_z
 _atom_site_occupancy
  Li  Li0  1  0.74999925  0.53434703  0.10283065  1
  Li  Li1  1  0.24999975  0.03434700  0.39716956  1
  Li  Li2  1  0.24999975  0.46565302  0.89716978  1
  Li  Li3  1  0.74999925  0.96565305  0.60283087  1
  Li  Li4  1  0.74999925  0.08037483  0.19864628  1
  Li  Li5  1  0.24999975  0.58037486  0.30135394  1
  Li  Li6  1  0.24999975  0.91962522  0.80135415  1
  Li  Li7  1  0.74999925  0.41962519  0.69864649  1
  H  H8  1  0.74999925  0.59428390  0.42465601  1
  H  H9  1  0.24999975  0.09428387  0.07534420  1
  H  H10  1  0.24999975  0.40571615  0.57534441  1
  H  H11  1  0.74999925  0.90571618  0.92465623  1
  N  N12  1  0.74999925  0.77821277  0.35465421  1
  N  N13  1  0.24999975  0.27821274  0.14534600  1
  N  N14  1  0.24999975  0.22178728  0.64534622  1
  N  N15  1  0.74999925  0.72178731  0.85465443  1
