# generated using pymatgen
data_MgBe2Sn
_symmetry_space_group_name_H-M   'P 1'
_cell_length_a   4.95911975
_cell_length_b   4.95911975
_cell_length_c   4.95911975
_cell_angle_alpha   133.05071982
_cell_angle_beta   133.05071982
_cell_angle_gamma   68.57450665
_symmetry_Int_Tables_number   1
_chemical_formula_structural   MgBe2Sn
_chemical_formula_sum   'Mg1 Be2 Sn1'
_cell_volume   63.95670041
_cell_formula_units_Z   1
loop_
 _symmetry_equiv_pos_site_id
 _symmetry_equiv_pos_as_xyz
  1  'x, y, z'
loop_
 _atom_site_type_symbol
 _atom_site_label
 _atom_site_symmetry_multiplicity
 _atom_site_fract_x
 _atom_site_fract_y
 _atom_site_fract_z
 _atom_site_occupancy
  Mg  Mg0  1  0.49999976  0.49999976  0.00000000  1
  Be  Be1  1  0.00000000  0.00000000  0.00000000  1
  Be  Be2  1  0.24999988  0.74999956  0.49999968  1
  Sn  Sn3  1  0.74999956  0.24999988  0.49999968  1
