# generated using pymatgen
data_Tb(AlC)3
_symmetry_space_group_name_H-M   'P 1'
_cell_length_a   3.43380750
_cell_length_b   3.43380750
_cell_length_c   17.39010597
_cell_angle_alpha   90.00000000
_cell_angle_beta   90.00000000
_cell_angle_gamma   120.00000947
_symmetry_Int_Tables_number   1
_chemical_formula_structural   Tb(AlC)3
_chemical_formula_sum   'Tb2 Al6 C6'
_cell_volume   177.57617945
_cell_formula_units_Z   2
loop_
 _symmetry_equiv_pos_site_id
 _symmetry_equiv_pos_as_xyz
  1  'x, y, z'
loop_
 _atom_site_type_symbol
 _atom_site_label
 _atom_site_symmetry_multiplicity
 _atom_site_fract_x
 _atom_site_fract_y
 _atom_site_fract_z
 _atom_site_occupancy
  Tb  Tb0  1  0.00000000  0.00000000  0.00000000  1
  Tb  Tb1  1  0.00000000  0.00000000  0.50000012  1
  Al  Al2  1  0.33333126  0.66666670  0.13393407  1
  Al  Al3  1  0.66666670  0.33333126  0.63393419  1
  Al  Al4  1  0.66666670  0.33333126  0.86606616  1
  Al  Al5  1  0.33333126  0.66666670  0.36606604  1
  Al  Al6  1  0.33333424  0.66666371  0.75000017  1
  Al  Al7  1  0.66666371  0.33333424  0.25000006  1
  C  C8  1  0.33333366  0.66666430  0.59382144  1
  C  C9  1  0.66666430  0.33333366  0.09382132  1
  C  C10  1  0.66666430  0.33333366  0.40617879  1
  C  C11  1  0.33333366  0.66666430  0.90617891  1
  C  C12  1  0.33333078  0.66666718  0.25000006  1
  C  C13  1  0.66666718  0.33333078  0.75000017  1
