# generated using pymatgen
data_Er5Tl3
_symmetry_space_group_name_H-M   'P 1'
_cell_length_a   8.81450120
_cell_length_b   8.81450120
_cell_length_c   8.81450120
_cell_angle_alpha   124.98383338
_cell_angle_beta   124.98383338
_cell_angle_gamma   81.56481183
_symmetry_Int_Tables_number   1
_chemical_formula_structural   Er5Tl3
_chemical_formula_sum   'Er10 Tl6'
_cell_volume   442.49451716
_cell_formula_units_Z   2
loop_
 _symmetry_equiv_pos_site_id
 _symmetry_equiv_pos_as_xyz
  1  'x, y, z'
loop_
 _atom_site_type_symbol
 _atom_site_label
 _atom_site_symmetry_multiplicity
 _atom_site_fract_x
 _atom_site_fract_y
 _atom_site_fract_z
 _atom_site_occupancy
  Er  Er0  1  0.00000000  0.00000000  0.00000000  1
  Er  Er1  1  0.49999984  0.49999984  0.00000000  1
  Er  Er2  1  0.80765624  0.30765584  0.80732010  1
  Er  Er3  1  0.50033655  0.00033615  0.19268071  1
  Er  Er4  1  0.30765584  0.50033655  0.50000040  1
  Er  Er5  1  0.00033615  0.80765624  0.50000040  1
  Er  Er6  1  -0.00033615  0.19234456  0.50000040  1
  Er  Er7  1  0.69234440  0.49966369  0.50000040  1
  Er  Er8  1  0.49966426  -0.00033615  0.80732010  1
  Er  Er9  1  0.19234400  0.69234440  0.19268071  1
  Tl  Tl10  1  0.24999992  0.24999992  0.00000000  1
  Tl  Tl11  1  0.74999976  0.74999976  0.00000000  1
  Tl  Tl12  1  0.85700296  0.35700256  0.21400584  1
  Tl  Tl13  1  0.14299728  0.64299769  0.78599497  1
  Tl  Tl14  1  0.35700312  0.14299728  0.50000040  1
  Tl  Tl15  1  0.64299712  0.85700296  0.50000040  1
