# generated using pymatgen
data_BeCoTe
_symmetry_space_group_name_H-M   'P 1'
_cell_length_a   4.34052909
_cell_length_b   4.34052909
_cell_length_c   4.34052909
_cell_angle_alpha   132.54109340
_cell_angle_beta   132.54109340
_cell_angle_gamma   69.37575958
_symmetry_Int_Tables_number   1
_chemical_formula_structural   BeCoTe
_chemical_formula_sum   'Be1 Co1 Te1'
_cell_volume   43.55672672
_cell_formula_units_Z   1
loop_
 _symmetry_equiv_pos_site_id
 _symmetry_equiv_pos_as_xyz
  1  'x, y, z'
loop_
 _atom_site_type_symbol
 _atom_site_label
 _atom_site_symmetry_multiplicity
 _atom_site_fract_x
 _atom_site_fract_y
 _atom_site_fract_z
 _atom_site_occupancy
  Be  Be0  1  0.00585672  0.00585672  0.00000000  1
  Co  Co1  1  0.32068100  0.32068100  0.00000000  1
  Te  Te2  1  0.67346151  0.67346151  0.00000000  1
