# generated using pymatgen
data_CeBPt2
_symmetry_space_group_name_H-M   'P 1'
_cell_length_a   5.48492626
_cell_length_b   5.48492626
_cell_length_c   8.00619499
_cell_angle_alpha   90.00000000
_cell_angle_beta   90.00000000
_cell_angle_gamma   120.00000000
_symmetry_Int_Tables_number   1
_chemical_formula_structural   CeBPt2
_chemical_formula_sum   'Ce3 B3 Pt6'
_cell_volume   208.59235209
_cell_formula_units_Z   3
loop_
 _symmetry_equiv_pos_site_id
 _symmetry_equiv_pos_as_xyz
  1  'x, y, z'
loop_
 _atom_site_type_symbol
 _atom_site_label
 _atom_site_symmetry_multiplicity
 _atom_site_fract_x
 _atom_site_fract_y
 _atom_site_fract_z
 _atom_site_occupancy
  Ce  Ce0  1  0.49999995  -0.00000052  0.00000000  1
  Ce  Ce1  1  -0.00000052  0.49999995  0.66666625  1
  Ce  Ce2  1  0.49999943  0.49999943  0.33333313  1
  B  B3  1  0.49999995  -0.00000052  0.49999969  1
  B  B4  1  -0.00000052  0.49999995  0.16666656  1
  B  B5  1  0.49999943  0.49999943  0.83333281  1
  Pt  Pt6  1  0.15336871  0.30673791  0.00000000  1
  Pt  Pt7  1  0.69326095  0.84663015  0.66666625  1
  Pt  Pt8  1  0.15336815  0.84663071  0.33333313  1
  Pt  Pt9  1  0.84663015  0.69326095  0.00000000  1
  Pt  Pt10  1  0.30673791  0.15336871  0.66666625  1
  Pt  Pt11  1  0.84663071  0.15336815  0.33333313  1
