# generated using pymatgen
data_Ho3(GePd)4
_symmetry_space_group_name_H-M   'P 1'
_cell_length_a   8.09476889
_cell_length_b   8.09476889
_cell_length_c   8.09476889
_cell_angle_alpha   150.21809229
_cell_angle_beta   128.13642491
_cell_angle_gamma   60.95749196
_symmetry_Int_Tables_number   1
_chemical_formula_structural   Ho3(GePd)4
_chemical_formula_sum   'Ho3 Ge4 Pd4'
_cell_volume   205.47952337
_cell_formula_units_Z   1
loop_
 _symmetry_equiv_pos_site_id
 _symmetry_equiv_pos_as_xyz
  1  'x, y, z'
loop_
 _atom_site_type_symbol
 _atom_site_label
 _atom_site_symmetry_multiplicity
 _atom_site_fract_x
 _atom_site_fract_y
 _atom_site_fract_z
 _atom_site_occupancy
  Ho  Ho0  1  0.00000000  0.00000000  0.00000000  1
  Ho  Ho1  1  0.37404217  0.87404327  0.50000110  1
  Ho  Ho2  1  0.62595781  0.12595765  0.50000016  1
  Ge  Ge3  1  0.31056437  0.50000110  0.81056547  1
  Ge  Ge4  1  0.68943561  0.49999982  0.18943579  1
  Ge  Ge5  1  0.21675629  0.21675629  0.00000000  1
  Ge  Ge6  1  0.78324336  0.78324336  0.00000000  1
  Pd  Pd7  1  0.97339309  0.67534209  0.29805100  1
  Pd  Pd8  1  0.37729143  0.67534336  0.70195026  1
  Pd  Pd9  1  0.62270856  0.32465756  0.29805100  1
  Pd  Pd10  1  0.02660690  0.32465883  0.70195026  1
