# generated using pymatgen
data_BeCoRh
_symmetry_space_group_name_H-M   'P 1'
_cell_length_a   4.79690431
_cell_length_b   4.79690431
_cell_length_c   4.79690431
_cell_angle_alpha   147.08315949
_cell_angle_beta   147.08315949
_cell_angle_gamma   47.24066678
_symmetry_Int_Tables_number   1
_chemical_formula_structural   BeCoRh
_chemical_formula_sum   'Be1 Co1 Rh1'
_cell_volume   32.47102428
_cell_formula_units_Z   1
loop_
 _symmetry_equiv_pos_site_id
 _symmetry_equiv_pos_as_xyz
  1  'x, y, z'
loop_
 _atom_site_type_symbol
 _atom_site_label
 _atom_site_symmetry_multiplicity
 _atom_site_fract_x
 _atom_site_fract_y
 _atom_site_fract_z
 _atom_site_occupancy
  Be  Be0  1  0.00456190  0.00456190  0.00000000  1
  Co  Co1  1  0.65062356  0.65062356  0.00000000  1
  Rh  Rh2  1  0.34481397  0.34481397  0.00000000  1
