# generated using pymatgen
data_BeSnBi
_symmetry_space_group_name_H-M   'P 1'
_cell_length_a   6.74219301
_cell_length_b   6.74219301
_cell_length_c   6.74219301
_cell_angle_alpha   150.98032707
_cell_angle_beta   150.98032707
_cell_angle_gamma   41.50426580
_symmetry_Int_Tables_number   1
_chemical_formula_structural   BeSnBi
_chemical_formula_sum   'Be1 Sn1 Bi1'
_cell_volume   71.96270752
_cell_formula_units_Z   1
loop_
 _symmetry_equiv_pos_site_id
 _symmetry_equiv_pos_as_xyz
  1  'x, y, z'
loop_
 _atom_site_type_symbol
 _atom_site_label
 _atom_site_symmetry_multiplicity
 _atom_site_fract_x
 _atom_site_fract_y
 _atom_site_fract_z
 _atom_site_occupancy
  Be  Be0  1  0.00508332  0.00508332  0.00000000  1
  Sn  Sn1  1  0.62552098  0.62552098  0.00000000  1
  Bi  Bi2  1  0.36939420  0.36939420  0.00000000  1
