# generated using pymatgen
data_NdCd2Pd
_symmetry_space_group_name_H-M   'P 1'
_cell_length_a   5.50088614
_cell_length_b   5.50088614
_cell_length_c   8.44014031
_cell_angle_alpha   90.00000000
_cell_angle_beta   90.00000000
_cell_angle_gamma   134.37006300
_symmetry_Int_Tables_number   1
_chemical_formula_structural   NdCd2Pd
_chemical_formula_sum   'Nd2 Cd4 Pd2'
_cell_volume   182.56717862
_cell_formula_units_Z   2
loop_
 _symmetry_equiv_pos_site_id
 _symmetry_equiv_pos_as_xyz
  1  'x, y, z'
loop_
 _atom_site_type_symbol
 _atom_site_label
 _atom_site_symmetry_multiplicity
 _atom_site_fract_x
 _atom_site_fract_y
 _atom_site_fract_z
 _atom_site_occupancy
  Nd  Nd0  1  0.06640191  0.93359628  0.74999997  1
  Nd  Nd1  1  0.93359628  0.06640191  0.24999999  1
  Cd  Cd2  1  0.35815582  0.64184237  0.95145308  1
  Cd  Cd3  1  0.64184237  0.35815582  0.45145309  1
  Cd  Cd4  1  0.35815582  0.64184237  0.54854687  1
  Cd  Cd5  1  0.64184237  0.35815582  0.04854689  1
  Pd  Pd6  1  0.77684505  0.22315314  0.74999997  1
  Pd  Pd7  1  0.22315314  0.77684505  0.24999999  1
