# generated using pymatgen
data_TbInAu
_symmetry_space_group_name_H-M   'P 1'
_cell_length_a   7.78504719
_cell_length_b   7.78504719
_cell_length_c   3.95433174
_cell_angle_alpha   90.00000000
_cell_angle_beta   90.00000000
_cell_angle_gamma   119.99999746
_symmetry_Int_Tables_number   1
_chemical_formula_structural   TbInAu
_chemical_formula_sum   'Tb3 In3 Au3'
_cell_volume   207.55167483
_cell_formula_units_Z   3
loop_
 _symmetry_equiv_pos_site_id
 _symmetry_equiv_pos_as_xyz
  1  'x, y, z'
loop_
 _atom_site_type_symbol
 _atom_site_label
 _atom_site_symmetry_multiplicity
 _atom_site_fract_x
 _atom_site_fract_y
 _atom_site_fract_z
 _atom_site_occupancy
  Tb  Tb0  1  0.59709219  -0.00000035  0.49999978  1
  Tb  Tb1  1  -0.00000035  0.59709219  0.49999978  1
  Tb  Tb2  1  0.40290720  0.40290720  0.49999978  1
  In  In3  1  0.26270973  -0.00000015  0.00000000  1
  In  In4  1  -0.00000015  0.26270973  0.00000000  1
  In  In5  1  0.73728946  0.73728946  0.00000000  1
  Au  Au6  1  0.33333248  0.66666655  0.00000000  1
  Au  Au7  1  0.66666655  0.33333248  0.00000000  1
  Au  Au8  1  0.00000000  0.00000000  0.49999978  1
