# generated using pymatgen
data_BeCrTc
_symmetry_space_group_name_H-M   'P 1'
_cell_length_a   2.68076916
_cell_length_b   2.68076916
_cell_length_c   5.81169154
_cell_angle_alpha   90.00000000
_cell_angle_beta   90.00000000
_cell_angle_gamma   120.00000975
_symmetry_Int_Tables_number   1
_chemical_formula_structural   BeCrTc
_chemical_formula_sum   'Be1 Cr1 Tc1'
_cell_volume   36.17028937
_cell_formula_units_Z   1
loop_
 _symmetry_equiv_pos_site_id
 _symmetry_equiv_pos_as_xyz
  1  'x, y, z'
loop_
 _atom_site_type_symbol
 _atom_site_label
 _atom_site_symmetry_multiplicity
 _atom_site_fract_x
 _atom_site_fract_y
 _atom_site_fract_z
 _atom_site_occupancy
  Be  Be0  1  0.00000000  0.00000000  0.99480124  1
  Cr  Cr1  1  0.66666506  0.33333167  0.67443007  1
  Tc  Tc2  1  0.33333167  0.66666506  0.33076816  1
