# generated using pymatgen
data_Fe3Pb4ClO8
_symmetry_space_group_name_H-M   'P 1'
_cell_length_a   3.92173614
_cell_length_b   3.92173614
_cell_length_c   15.10063442
_cell_angle_alpha   90.00000000
_cell_angle_beta   90.00000000
_cell_angle_gamma   90.00000000
_symmetry_Int_Tables_number   1
_chemical_formula_structural   Fe3Pb4ClO8
_chemical_formula_sum   'Fe3 Pb4 Cl1 O8'
_cell_volume   232.24797356
_cell_formula_units_Z   1
loop_
 _symmetry_equiv_pos_site_id
 _symmetry_equiv_pos_as_xyz
  1  'x, y, z'
loop_
 _atom_site_type_symbol
 _atom_site_label
 _atom_site_symmetry_multiplicity
 _atom_site_fract_x
 _atom_site_fract_y
 _atom_site_fract_z
 _atom_site_occupancy
  Fe  Fe0  1  0.50000049  0.50000049  0.36611622  1
  Fe  Fe1  1  0.50000049  0.50000049  0.61892616  1
  Fe  Fe2  1  0.50000049  0.50000049  0.87174083  1
  Pb  Pb3  1  0.00000000  0.00000000  -0.00484850  1
  Pb  Pb4  1  0.00000000  0.00000000  0.24271695  1
  Pb  Pb5  1  0.00000000  0.00000000  0.50147597  1
  Pb  Pb6  1  0.00000000  0.00000000  0.73634671  1
  Cl  Cl7  1  0.50000049  0.50000049  0.11900855  1
  O  O8  1  0.50000049  0.00000000  0.33791793  1
  O  O9  1  0.00000000  0.50000049  0.33791793  1
  O  O10  1  0.50000049  0.50000049  0.49087718  1
  O  O11  1  0.50000049  0.00000000  0.61893203  1
  O  O12  1  0.00000000  0.50000049  0.61893203  1
  O  O13  1  0.50000049  0.50000049  0.74698396  1
  O  O14  1  0.50000049  0.00000000  0.89997680  1
  O  O15  1  0.00000000  0.50000049  0.89997680  1
