# generated using pymatgen
data_LaGaCo2
_symmetry_space_group_name_H-M   'P 1'
_cell_length_a   3.69797664
_cell_length_b   5.36345503
_cell_length_c   6.90496156
_cell_angle_alpha   90.00000000
_cell_angle_beta   90.00000000
_cell_angle_gamma   90.00000000
_symmetry_Int_Tables_number   1
_chemical_formula_structural   LaGaCo2
_chemical_formula_sum   'La2 Ga2 Co4'
_cell_volume   136.95253383
_cell_formula_units_Z   2
loop_
 _symmetry_equiv_pos_site_id
 _symmetry_equiv_pos_as_xyz
  1  'x, y, z'
loop_
 _atom_site_type_symbol
 _atom_site_label
 _atom_site_symmetry_multiplicity
 _atom_site_fract_x
 _atom_site_fract_y
 _atom_site_fract_z
 _atom_site_occupancy
  La  La0  1  0.50000045  0.25000023  0.32827564  1
  La  La1  1  0.50000045  0.75000070  0.67172414  1
  Ga  Ga2  1  0.50000045  0.25000023  0.88142874  1
  Ga  Ga3  1  0.50000045  0.75000070  0.11857103  1
  Co  Co4  1  0.00000000  0.00000000  0.00000000  1
  Co  Co5  1  0.00000000  0.50000046  0.00000000  1
  Co  Co6  1  0.00000000  0.25000023  0.66118421  1
  Co  Co7  1  0.00000000  0.75000070  0.33881556  1
