# generated using pymatgen
data_CaSiBHO5
_symmetry_space_group_name_H-M   'P 1'
_cell_length_a   4.84261589
_cell_length_b   7.64257878
_cell_length_c   9.70653802
_cell_angle_alpha   90.00000000
_cell_angle_beta   90.22602388
_cell_angle_gamma   90.00000000
_symmetry_Int_Tables_number   1
_chemical_formula_structural   CaSiBHO5
_chemical_formula_sum   'Ca4 Si4 B4 H4 O20'
_cell_volume   359.23689021
_cell_formula_units_Z   4
loop_
 _symmetry_equiv_pos_site_id
 _symmetry_equiv_pos_as_xyz
  1  'x, y, z'
loop_
 _atom_site_type_symbol
 _atom_site_label
 _atom_site_symmetry_multiplicity
 _atom_site_fract_x
 _atom_site_fract_y
 _atom_site_fract_z
 _atom_site_occupancy
  Ca  Ca0  1  0.99197931  0.39373069  0.83644206  1
  Ca  Ca1  1  0.00801868  0.89373077  0.66355831  1
  Ca  Ca2  1  0.00801903  0.60626947  0.16355817  1
  Ca  Ca3  1  0.99197966  0.10626939  0.33644192  1
  Si  Si4  1  0.52926037  0.73242093  0.91593445  1
  Si  Si5  1  0.47073762  0.23242085  0.58406592  1
  Si  Si6  1  0.47073797  0.26757923  0.08406578  1
  Si  Si7  1  0.52926072  0.76757931  0.41593431  1
  B  B8  1  0.42842093  0.91136475  0.15902325  1
  B  B9  1  0.57157776  0.41136467  0.34097684  1
  B  B10  1  0.57157741  0.08863541  0.84097698  1
  B  B11  1  0.42842058  0.58863549  0.65902339  1
  H  H12  1  0.81001236  0.53514442  0.57735884  1
  H  H13  1  0.18998563  0.03514434  0.92264153  1
  H  H14  1  0.81001271  0.96485581  0.07735870  1
  H  H15  1  0.18998598  0.46485574  0.42264140  1
  O  O16  1  0.67830091  0.33525829  0.21120791  1
  O  O17  1  0.26100941  0.41373785  0.33669134  1
  O  O18  1  0.73898928  0.91373793  0.16330875  1
  O  O19  1  0.68737527  0.58899098  0.35428688  1
  O  O20  1  0.31262342  0.08899090  0.14571321  1
  O  O21  1  0.31262307  0.41100918  0.64571335  1
  O  O22  1  0.68737492  0.91100926  0.85428702  1
  O  O23  1  0.32169778  0.83525837  0.28879219  1
  O  O24  1  0.67830056  0.16474179  0.71120804  1
  O  O25  1  0.24171285  0.09545782  0.53598875  1
  O  O26  1  0.32591256  0.69757533  0.54235409  1
  O  O27  1  0.67408543  0.19757525  0.95764628  1
  O  O28  1  0.67408577  0.30242483  0.45764614  1
  O  O29  1  0.32591291  0.80242491  0.04235395  1
  O  O30  1  0.75828549  0.90454234  0.46401148  1
  O  O31  1  0.24171320  0.40454226  0.03598861  1
  O  O32  1  0.26100906  0.08626223  0.83669148  1
  O  O33  1  0.75828514  0.59545790  0.96401162  1
  O  O34  1  0.32169743  0.66474187  0.78879232  1
  O  O35  1  0.73898893  0.58626231  0.66330889  1
