# generated using pymatgen
data_K4BeRh
_symmetry_space_group_name_H-M   'P 1'
_cell_length_a   6.48797474
_cell_length_b   6.48797474
_cell_length_c   6.48797474
_cell_angle_alpha   60.00000000
_cell_angle_beta   60.00000000
_cell_angle_gamma   60.00000000
_symmetry_Int_Tables_number   1
_chemical_formula_structural   K4BeRh
_chemical_formula_sum   'K4 Be1 Rh1'
_cell_volume   193.11341872
_cell_formula_units_Z   1
loop_
 _symmetry_equiv_pos_site_id
 _symmetry_equiv_pos_as_xyz
  1  'x, y, z'
loop_
 _atom_site_type_symbol
 _atom_site_label
 _atom_site_symmetry_multiplicity
 _atom_site_fract_x
 _atom_site_fract_y
 _atom_site_fract_z
 _atom_site_occupancy
  K  K0  1  0.12690456  0.62436501  0.62436501  1
  K  K1  1  0.62436501  0.62436501  0.62436501  1
  K  K2  1  0.62436501  0.12690456  0.62436501  1
  K  K3  1  0.62436501  0.62436501  0.12690456  1
  Be  Be4  1  0.00000000  0.00000000  0.00000000  1
  Rh  Rh5  1  0.24999995  0.24999995  0.24999995  1
