# generated using pymatgen
data_Sr2BeV
_symmetry_space_group_name_H-M   'P 1'
_cell_length_a   5.87978201
_cell_length_b   5.87978201
_cell_length_c   5.87978201
_cell_angle_alpha   132.24972509
_cell_angle_beta   132.24972509
_cell_angle_gamma   69.83489809
_symmetry_Int_Tables_number   1
_chemical_formula_structural   Sr2BeV
_chemical_formula_sum   'Sr2 Be1 V1'
_cell_volume   109.22153054
_cell_formula_units_Z   1
loop_
 _symmetry_equiv_pos_site_id
 _symmetry_equiv_pos_as_xyz
  1  'x, y, z'
loop_
 _atom_site_type_symbol
 _atom_site_label
 _atom_site_symmetry_multiplicity
 _atom_site_fract_x
 _atom_site_fract_y
 _atom_site_fract_z
 _atom_site_occupancy
  Sr  Sr0  1  0.00000000  0.00000000  0.00000000  1
  Sr  Sr1  1  0.25000003  0.74999975  0.49999972  1
  Be  Be2  1  0.74999975  0.25000003  0.49999972  1
  V  V3  1  0.50000005  0.50000005  0.00000000  1
