# generated using pymatgen
data_Dy2CdGe2
_symmetry_space_group_name_H-M   'P 1'
_cell_length_a   7.30942883
_cell_length_b   7.30942883
_cell_length_c   4.16766747
_cell_angle_alpha   90.00000000
_cell_angle_beta   90.00000000
_cell_angle_gamma   90.00000000
_symmetry_Int_Tables_number   1
_chemical_formula_structural   Dy2CdGe2
_chemical_formula_sum   'Dy4 Cd2 Ge4'
_cell_volume   222.66909489
_cell_formula_units_Z   2
loop_
 _symmetry_equiv_pos_site_id
 _symmetry_equiv_pos_as_xyz
  1  'x, y, z'
loop_
 _atom_site_type_symbol
 _atom_site_label
 _atom_site_symmetry_multiplicity
 _atom_site_fract_x
 _atom_site_fract_y
 _atom_site_fract_z
 _atom_site_occupancy
  Dy  Dy0  1  0.17828155  0.67828163  0.50000030  1
  Dy  Dy1  1  0.82171861  0.32171853  0.50000030  1
  Dy  Dy2  1  0.32171853  0.17828155  0.50000030  1
  Dy  Dy3  1  0.67828163  0.82171861  0.50000030  1
  Cd  Cd4  1  0.00000000  0.00000000  0.00000000  1
  Cd  Cd5  1  0.50000008  0.50000008  0.00000000  1
  Ge  Ge6  1  0.62208212  0.12208204  0.00000000  1
  Ge  Ge7  1  0.37791804  0.87791812  0.00000000  1
  Ge  Ge8  1  0.87791812  0.62208212  0.00000000  1
  Ge  Ge9  1  0.12208204  0.37791804  0.00000000  1
