# generated using pymatgen
data_MgBeGe
_symmetry_space_group_name_H-M   'P 1'
_cell_length_a   6.01998970
_cell_length_b   6.01998970
_cell_length_c   6.01998970
_cell_angle_alpha   151.86140105
_cell_angle_beta   151.86140105
_cell_angle_gamma   40.21573757
_symmetry_Int_Tables_number   1
_chemical_formula_structural   MgBeGe
_chemical_formula_sum   'Mg1 Be1 Ge1'
_cell_volume   48.42701425
_cell_formula_units_Z   1
loop_
 _symmetry_equiv_pos_site_id
 _symmetry_equiv_pos_as_xyz
  1  'x, y, z'
loop_
 _atom_site_type_symbol
 _atom_site_label
 _atom_site_symmetry_multiplicity
 _atom_site_fract_x
 _atom_site_fract_y
 _atom_site_fract_z
 _atom_site_occupancy
  Mg  Mg0  1  0.65107676  0.65107676  0.00000000  1
  Be  Be1  1  0.99076224  0.99076224  0.00000000  1
  Ge  Ge2  1  0.35815975  0.35815975  0.00000000  1
