# generated using pymatgen
data_Y3(CuSn)4
_symmetry_space_group_name_H-M   'P 1'
_cell_length_a   8.43531733
_cell_length_b   8.43531733
_cell_length_c   8.43531733
_cell_angle_alpha   149.35311818
_cell_angle_beta   131.41455100
_cell_angle_gamma   58.54507909
_symmetry_Int_Tables_number   1
_chemical_formula_structural   Y3(CuSn)4
_chemical_formula_sum   'Y3 Cu4 Sn4'
_cell_volume   227.68731046
_cell_formula_units_Z   1
loop_
 _symmetry_equiv_pos_site_id
 _symmetry_equiv_pos_as_xyz
  1  'x, y, z'
loop_
 _atom_site_type_symbol
 _atom_site_label
 _atom_site_symmetry_multiplicity
 _atom_site_fract_x
 _atom_site_fract_y
 _atom_site_fract_z
 _atom_site_occupancy
  Y  Y0  1  0.50000030  0.00000000  0.50000030  1
  Y  Y1  1  0.86863886  0.86863886  -0.00000000  1
  Y  Y2  1  0.13136132  0.13136132  0.00000000  1
  Cu  Cu3  1  0.48174951  0.67021130  0.81153756  1
  Cu  Cu4  1  0.51825087  0.32978846  0.18846241  1
  Cu  Cu5  1  0.14132626  0.32978804  0.81153756  1
  Cu  Cu6  1  0.85867412  0.67021171  0.18846241  1
  Sn  Sn7  1  0.28390686  0.78390653  0.49999967  1
  Sn  Sn8  1  0.71609352  0.21609323  0.50000030  1
  Sn  Sn9  1  0.79680901  0.50000009  0.29680892  1
  Sn  Sn10  1  0.20319138  0.49999967  0.70319104  1
