# generated using pymatgen
data_ScBeCr
_symmetry_space_group_name_H-M   'P 1'
_cell_length_a   2.90362494
_cell_length_b   2.90362494
_cell_length_c   5.95203666
_cell_angle_alpha   90.00000000
_cell_angle_beta   90.00000000
_cell_angle_gamma   119.99999563
_symmetry_Int_Tables_number   1
_chemical_formula_structural   ScBeCr
_chemical_formula_sum   'Sc1 Be1 Cr1'
_cell_volume   43.45875534
_cell_formula_units_Z   1
loop_
 _symmetry_equiv_pos_site_id
 _symmetry_equiv_pos_as_xyz
  1  'x, y, z'
loop_
 _atom_site_type_symbol
 _atom_site_label
 _atom_site_symmetry_multiplicity
 _atom_site_fract_x
 _atom_site_fract_y
 _atom_site_fract_z
 _atom_site_occupancy
  Sc  Sc0  1  0.33333231  0.66666592  0.66499532  1
  Be  Be1  1  0.00000000  0.00000000  0.03083442  1
  Cr  Cr2  1  0.66666592  0.33333231  0.30417082  1
