# generated using pymatgen
data_Be2FeHg
_symmetry_space_group_name_H-M   'P 1'
_cell_length_a   4.75155811
_cell_length_b   4.75155811
_cell_length_c   4.75155811
_cell_angle_alpha   137.34047045
_cell_angle_beta   137.34047045
_cell_angle_gamma   61.91461522
_symmetry_Int_Tables_number   1
_chemical_formula_structural   Be2FeHg
_chemical_formula_sum   'Be2 Fe1 Hg1'
_cell_volume   48.68538783
_cell_formula_units_Z   1
loop_
 _symmetry_equiv_pos_site_id
 _symmetry_equiv_pos_as_xyz
  1  'x, y, z'
loop_
 _atom_site_type_symbol
 _atom_site_label
 _atom_site_symmetry_multiplicity
 _atom_site_fract_x
 _atom_site_fract_y
 _atom_site_fract_z
 _atom_site_occupancy
  Be  Be0  1  0.00000000  0.00000000  0.00000000  1
  Be  Be1  1  0.24999984  0.75000016  0.50000032  1
  Fe  Fe2  1  0.49999968  0.49999968  0.00000000  1
  Hg  Hg3  1  0.75000016  0.24999984  0.50000032  1
