# generated using pymatgen
data_LaNiSn2
_symmetry_space_group_name_H-M   'P 1'
_cell_length_a   9.44141731
_cell_length_b   9.44141731
_cell_length_c   4.58721195
_cell_angle_alpha   90.00000000
_cell_angle_beta   90.00000000
_cell_angle_gamma   152.26442789
_symmetry_Int_Tables_number   1
_chemical_formula_structural   LaNiSn2
_chemical_formula_sum   'La2 Ni2 Sn4'
_cell_volume   190.30131287
_cell_formula_units_Z   2
loop_
 _symmetry_equiv_pos_site_id
 _symmetry_equiv_pos_as_xyz
  1  'x, y, z'
loop_
 _atom_site_type_symbol
 _atom_site_label
 _atom_site_symmetry_multiplicity
 _atom_site_fract_x
 _atom_site_fract_y
 _atom_site_fract_z
 _atom_site_occupancy
  La  La0  1  0.10956829  0.89043173  0.74999968  1
  La  La1  1  0.89043173  0.10956829  0.24999989  1
  Ni  Ni2  1  0.31756450  0.68243552  0.74999968  1
  Ni  Ni3  1  0.68243552  0.31756450  0.24999989  1
  Sn  Sn4  1  0.45316406  0.54683596  0.74999968  1
  Sn  Sn5  1  0.54683596  0.45316406  0.24999989  1
  Sn  Sn6  1  0.74916215  0.25083788  0.74999968  1
  Sn  Sn7  1  0.25083788  0.74916215  0.24999989  1
