# generated using pymatgen
data_La5SiGe2
_symmetry_space_group_name_H-M   'P 1'
_cell_length_a   9.09831448
_cell_length_b   9.09831448
_cell_length_c   9.09831448
_cell_angle_alpha   126.67976282
_cell_angle_beta   126.67976282
_cell_angle_gamma   78.77374522
_symmetry_Int_Tables_number   1
_chemical_formula_structural   La5SiGe2
_chemical_formula_sum   'La10 Si2 Ge4'
_cell_volume   468.77100753
_cell_formula_units_Z   2
loop_
 _symmetry_equiv_pos_site_id
 _symmetry_equiv_pos_as_xyz
  1  'x, y, z'
loop_
 _atom_site_type_symbol
 _atom_site_label
 _atom_site_symmetry_multiplicity
 _atom_site_fract_x
 _atom_site_fract_y
 _atom_site_fract_z
 _atom_site_occupancy
  La  La0  1  0.00000000  0.00000000  0.00000000  1
  La  La1  1  0.50000028  0.50000028  0.00000000  1
  La  La2  1  0.67875571  0.17875532  0.15409962  1
  La  La3  1  0.02465580  0.52465619  0.84590115  1
  La  La4  1  0.52465609  0.67875571  0.50000039  1
  La  La5  1  0.17875543  0.02465580  0.50000039  1
  La  La6  1  0.82124524  0.97534487  0.50000039  1
  La  La7  1  0.47534458  0.32124496  0.50000039  1
  La  La8  1  0.97534487  0.47534448  0.15409962  1
  La  La9  1  0.32124496  0.82124534  0.84590115  1
  Si  Si10  1  0.75000043  0.75000043  0.00000000  1
  Si  Si11  1  0.25000014  0.25000014  0.00000000  1
  Ge  Ge12  1  0.62563172  0.12563133  0.75126305  1
  Ge  Ge13  1  0.37436895  0.87436934  0.24873772  1
  Ge  Ge14  1  0.87436934  0.62563162  0.50000039  1
  Ge  Ge15  1  0.12563133  0.37436905  0.50000039  1
