# generated using pymatgen
data_BPb3O4F
_symmetry_space_group_name_H-M   'P 1'
_cell_length_a   6.50118816
_cell_length_b   7.68315843
_cell_length_c   12.11020008
_cell_angle_alpha   90.00000000
_cell_angle_beta   90.00000000
_cell_angle_gamma   90.00000000
_symmetry_Int_Tables_number   1
_chemical_formula_structural   BPb3O4F
_chemical_formula_sum   'B4 Pb12 O16 F4'
_cell_volume   604.90035929
_cell_formula_units_Z   4
loop_
 _symmetry_equiv_pos_site_id
 _symmetry_equiv_pos_as_xyz
  1  'x, y, z'
loop_
 _atom_site_type_symbol
 _atom_site_label
 _atom_site_symmetry_multiplicity
 _atom_site_fract_x
 _atom_site_fract_y
 _atom_site_fract_z
 _atom_site_occupancy
  B  B0  1  0.25000007  0.97832216  0.50000000  1
  B  B1  1  0.75000021  0.02167804  0.00000000  1
  B  B2  1  0.75000021  0.02167804  0.50000000  1
  B  B3  1  0.25000007  0.97832216  0.00000000  1
  Pb  Pb4  1  0.45076241  0.89164696  0.74999999  1
  Pb  Pb5  1  0.54923788  0.10835325  0.25000000  1
  Pb  Pb6  1  0.95076255  0.10835325  0.74999999  1
  Pb  Pb7  1  0.04923773  0.89164696  0.25000000  1
  Pb  Pb8  1  0.47056440  0.33307077  0.89503053  1
  Pb  Pb9  1  0.52943588  0.66692943  0.39503053  1
  Pb  Pb10  1  0.97056454  0.66692943  0.60496946  1
  Pb  Pb11  1  0.47056440  0.33307077  0.60496946  1
  Pb  Pb12  1  0.52943588  0.66692943  0.10496947  1
  Pb  Pb13  1  0.97056454  0.66692943  0.89503053  1
  Pb  Pb14  1  0.02943574  0.33307077  0.39503053  1
  Pb  Pb15  1  0.02943574  0.33307077  0.10496947  1
  O  O16  1  0.20340509  0.06781290  0.09636110  1
  O  O17  1  0.75000021  0.20266576  0.00000000  1
  O  O18  1  0.25000007  0.79733444  0.50000000  1
  O  O19  1  0.25000007  0.79733444  0.00000000  1
  O  O20  1  0.75000021  0.20266576  0.50000000  1
  O  O21  1  0.70340524  0.93218730  0.40363889  1
  O  O22  1  0.29659505  0.06781290  0.90363889  1
  O  O23  1  0.79659519  0.93218730  0.59636110  1
  O  O24  1  0.09006805  0.80635991  0.74999999  1
  O  O25  1  0.70340524  0.93218730  0.09636110  1
  O  O26  1  0.79659519  0.93218730  0.90363889  1
  O  O27  1  0.20340509  0.06781290  0.40363889  1
  O  O28  1  0.59006819  0.19364030  0.74999999  1
  O  O29  1  0.40993209  0.80635991  0.25000000  1
  O  O30  1  0.90993223  0.19364030  0.25000000  1
  O  O31  1  0.29659505  0.06781290  0.59636110  1
  F  F32  1  0.80490624  0.57811342  0.25000000  1
  F  F33  1  0.30490610  0.42188679  0.25000000  1
  F  F34  1  0.69509418  0.57811342  0.74999999  1
  F  F35  1  0.19509404  0.42188679  0.74999999  1
