# generated using pymatgen
data_KBeSe2
_symmetry_space_group_name_H-M   'P 1'
_cell_length_a   3.38330074
_cell_length_b   3.38330074
_cell_length_c   8.11230910
_cell_angle_alpha   90.00000000
_cell_angle_beta   90.00000000
_cell_angle_gamma   90.00000000
_symmetry_Int_Tables_number   1
_chemical_formula_structural   KBeSe2
_chemical_formula_sum   'K1 Be1 Se2'
_cell_volume   92.85936222
_cell_formula_units_Z   1
loop_
 _symmetry_equiv_pos_site_id
 _symmetry_equiv_pos_as_xyz
  1  'x, y, z'
loop_
 _atom_site_type_symbol
 _atom_site_label
 _atom_site_symmetry_multiplicity
 _atom_site_fract_x
 _atom_site_fract_y
 _atom_site_fract_z
 _atom_site_occupancy
  K  K0  1  0.49999989  0.49999989  0.77757782  1
  Be  Be1  1  0.00000000  0.00000000  0.30003163  1
  Se  Se2  1  0.00000000  0.00000000  0.03239097  1
  Se  Se3  1  0.49999989  0.49999989  0.39000075  1
