# generated using pymatgen
data_Ho2Pt
_symmetry_space_group_name_H-M   'P 1'
_cell_length_a   4.72628438
_cell_length_b   7.08023793
_cell_length_c   8.72217193
_cell_angle_alpha   90.00000000
_cell_angle_beta   90.00000000
_cell_angle_gamma   90.00000000
_symmetry_Int_Tables_number   1
_chemical_formula_structural   Ho2Pt
_chemical_formula_sum   'Ho8 Pt4'
_cell_volume   291.87193973
_cell_formula_units_Z   4
loop_
 _symmetry_equiv_pos_site_id
 _symmetry_equiv_pos_as_xyz
  1  'x, y, z'
loop_
 _atom_site_type_symbol
 _atom_site_label
 _atom_site_symmetry_multiplicity
 _atom_site_fract_x
 _atom_site_fract_y
 _atom_site_fract_z
 _atom_site_occupancy
  Ho  Ho0  1  0.24999977  0.85544784  0.91922882  1
  Ho  Ho1  1  0.74999931  0.64455260  0.41922893  1
  Ho  Ho2  1  0.74999931  0.14455246  0.08077096  1
  Ho  Ho3  1  0.24999977  0.35544769  0.58077085  1
  Ho  Ho4  1  0.24999977  0.99034548  0.33120709  1
  Ho  Ho5  1  0.74999931  0.50965496  0.83120698  1
  Ho  Ho6  1  0.74999931  0.00965482  0.66879269  1
  Ho  Ho7  1  0.24999977  0.49034533  0.16879280  1
  Pt  Pt8  1  0.24999977  0.25900796  0.90630673  1
  Pt  Pt9  1  0.74999931  0.24099218  0.40630684  1
  Pt  Pt10  1  0.74999931  0.74099233  0.09369305  1
  Pt  Pt11  1  0.24999977  0.75900811  0.59369294  1
