# generated using pymatgen
data_FeCO3
_symmetry_space_group_name_H-M   'P 1'
_cell_length_a   5.69747354
_cell_length_b   5.69747354
_cell_length_c   5.69747354
_cell_angle_alpha   48.88627407
_cell_angle_beta   48.88627407
_cell_angle_gamma   48.88627407
_symmetry_Int_Tables_number   1
_chemical_formula_structural   FeCO3
_chemical_formula_sum   'Fe2 C2 O6'
_cell_volume   96.36576726
_cell_formula_units_Z   2
loop_
 _symmetry_equiv_pos_site_id
 _symmetry_equiv_pos_as_xyz
  1  'x, y, z'
loop_
 _atom_site_type_symbol
 _atom_site_label
 _atom_site_symmetry_multiplicity
 _atom_site_fract_x
 _atom_site_fract_y
 _atom_site_fract_z
 _atom_site_occupancy
  Fe  Fe0  1  0.00000000  0.00000000  0.00000000  1
  Fe  Fe1  1  0.50000021  0.50000021  0.49999948  1
  C  C2  1  0.25000011  0.25000011  0.24999974  1
  C  C3  1  0.75000032  0.75000032  0.74999922  1
  O  O4  1  0.25000020  0.52560782  0.97439214  1
  O  O5  1  0.97439333  0.24999981  0.52560669  1
  O  O6  1  0.52560721  0.97439310  0.24999934  1
  O  O7  1  0.75000023  0.47439260  0.02560682  1
  O  O8  1  0.02560709  0.75000061  0.47439226  1
  O  O9  1  0.47439321  0.02560732  0.74999962  1
