# generated using pymatgen
data_HfScBe
_symmetry_space_group_name_H-M   'P 1'
_cell_length_a   3.18290685
_cell_length_b   3.18290685
_cell_length_c   6.49689784
_cell_angle_alpha   90.00000000
_cell_angle_beta   90.00000000
_cell_angle_gamma   119.99999230
_symmetry_Int_Tables_number   1
_chemical_formula_structural   HfScBe
_chemical_formula_sum   'Hf1 Sc1 Be1'
_cell_volume   57.00127385
_cell_formula_units_Z   1
loop_
 _symmetry_equiv_pos_site_id
 _symmetry_equiv_pos_as_xyz
  1  'x, y, z'
loop_
 _atom_site_type_symbol
 _atom_site_label
 _atom_site_symmetry_multiplicity
 _atom_site_fract_x
 _atom_site_fract_y
 _atom_site_fract_z
 _atom_site_occupancy
  Hf  Hf0  1  0.33333175  0.66666598  0.70282425  1
  Sc  Sc1  1  0.66666598  0.33333175  0.29997015  1
  Be  Be2  1  0.00000000  -0.00000000  0.99720627  1
