# generated using pymatgen
data_Dy3Ge5
_symmetry_space_group_name_H-M   'P 1'
_cell_length_a   6.91854488
_cell_length_b   6.91854488
_cell_length_c   8.30083263
_cell_angle_alpha   90.00000014
_cell_angle_beta   89.99999986
_cell_angle_gamma   120.00047400
_symmetry_Int_Tables_number   1
_chemical_formula_structural   Dy3Ge5
_chemical_formula_sum   'Dy6 Ge10'
_cell_volume   344.09609210
_cell_formula_units_Z   2
loop_
 _symmetry_equiv_pos_site_id
 _symmetry_equiv_pos_as_xyz
  1  'x, y, z'
loop_
 _atom_site_type_symbol
 _atom_site_label
 _atom_site_symmetry_multiplicity
 _atom_site_fract_x
 _atom_site_fract_y
 _atom_site_fract_z
 _atom_site_occupancy
  Dy  Dy0  1  0.33169647  0.00000609  0.00000026  1
  Dy  Dy1  1  0.00000609  0.33169647  -0.00000026  1
  Dy  Dy2  1  0.66830742  0.66830742  0.00000000  1
  Dy  Dy3  1  0.33169649  0.00000611  0.49999959  1
  Dy  Dy4  1  0.00000611  0.33169649  0.50000009  1
  Dy  Dy5  1  0.66830742  0.66830743  0.49999984  1
  Ge  Ge6  1  0.33333190  0.66667114  0.24999992  1
  Ge  Ge7  1  0.66667113  0.33333191  0.74999977  1
  Ge  Ge8  1  -0.00000341  0.99999698  0.24999991  1
  Ge  Ge9  1  0.99999698  -0.00000340  0.74999977  1
  Ge  Ge10  1  0.40414736  0.33127606  0.24999992  1
  Ge  Ge11  1  0.66873103  0.07288783  0.24999993  1
  Ge  Ge12  1  0.92710915  0.59583670  0.24999992  1
  Ge  Ge13  1  0.33127605  0.40414736  0.74999976  1
  Ge  Ge14  1  0.07288782  0.66873104  0.74999975  1
  Ge  Ge15  1  0.59583669  0.92710915  0.74999976  1
