# generated using pymatgen
data_NaMgSO4F
_symmetry_space_group_name_H-M   'P 1'
_cell_length_a   5.43156053
_cell_length_b   5.43156053
_cell_length_c   7.04861641
_cell_angle_alpha   75.57096504
_cell_angle_beta   75.57096504
_cell_angle_gamma   104.83367996
_symmetry_Int_Tables_number   1
_chemical_formula_structural   NaMgSO4F
_chemical_formula_sum   'Na2 Mg2 S2 O8 F2'
_cell_volume   183.47526868
_cell_formula_units_Z   2
loop_
 _symmetry_equiv_pos_site_id
 _symmetry_equiv_pos_as_xyz
  1  'x, y, z'
loop_
 _atom_site_type_symbol
 _atom_site_label
 _atom_site_symmetry_multiplicity
 _atom_site_fract_x
 _atom_site_fract_y
 _atom_site_fract_z
 _atom_site_occupancy
  Na  Na0  1  0.33125590  0.66874368  0.25000033  1
  Na  Na1  1  0.66874405  0.33125627  0.75000011  1
  Mg  Mg2  1  0.00000000  0.00000000  0.00000000  1
  Mg  Mg3  1  0.00000037  0.00000037  0.49999978  1
  S  S4  1  0.67746017  0.32253941  0.25000033  1
  S  S5  1  0.32253978  0.67746054  0.75000011  1
  O  O6  1  0.67471275  0.12109669  0.13906413  1
  O  O7  1  0.87890289  0.32528683  0.36093652  1
  O  O8  1  0.32528720  0.87890326  0.86093630  1
  O  O9  1  0.12109706  0.67471312  0.63906392  1
  O  O10  1  0.74416112  0.59420223  0.09606745  1
  O  O11  1  0.40579735  0.25583846  0.40393320  1
  O  O12  1  0.25583883  0.40579772  0.90393298  1
  O  O13  1  0.59420260  0.74416149  0.59606723  1
  F  F14  1  0.08001775  0.91998183  0.25000033  1
  F  F15  1  0.91998221  0.08001812  0.75000011  1
