# generated using pymatgen
data_MnBeGa
_symmetry_space_group_name_H-M   'P 1'
_cell_length_a   4.79571467
_cell_length_b   4.79571467
_cell_length_c   4.79571467
_cell_angle_alpha   146.04721730
_cell_angle_beta   146.04721730
_cell_angle_gamma   48.77663473
_symmetry_Int_Tables_number   1
_chemical_formula_structural   MnBeGa
_chemical_formula_sum   'Mn1 Be1 Ga1'
_cell_volume   34.25522926
_cell_formula_units_Z   1
loop_
 _symmetry_equiv_pos_site_id
 _symmetry_equiv_pos_as_xyz
  1  'x, y, z'
loop_
 _atom_site_type_symbol
 _atom_site_label
 _atom_site_symmetry_multiplicity
 _atom_site_fract_x
 _atom_site_fract_y
 _atom_site_fract_z
 _atom_site_occupancy
  Mn  Mn0  1  0.65022458  0.65022458  0.00000000  1
  Be  Be1  1  0.01279206  0.01279206  0.00000000  1
  Ga  Ga2  1  0.33698271  0.33698271  0.00000000  1
