# generated using pymatgen
data_B
_symmetry_space_group_name_H-M   'P 1'
_cell_length_a   5.03837517
_cell_length_b   5.61406127
_cell_length_c   6.95553606
_cell_angle_alpha   90.00000000
_cell_angle_beta   90.00000000
_cell_angle_gamma   90.00000000
_symmetry_Int_Tables_number   1
_chemical_formula_structural   B
_chemical_formula_sum   B28
_cell_volume   196.74253283
_cell_formula_units_Z   28
loop_
 _symmetry_equiv_pos_site_id
 _symmetry_equiv_pos_as_xyz
  1  'x, y, z'
loop_
 _atom_site_type_symbol
 _atom_site_label
 _atom_site_symmetry_multiplicity
 _atom_site_fract_x
 _atom_site_fract_y
 _atom_site_fract_z
 _atom_site_occupancy
  B  B0  1  0.15337042  0.59304554  0.79213569  1
  B  B1  1  0.33046974  0.01907477  0.00000000  1
  B  B2  1  0.66953122  0.98092500  0.00000000  1
  B  B3  1  0.66079224  0.21946398  0.37478192  1
  B  B4  1  0.33920872  0.78053579  0.37478192  1
  B  B5  1  0.83920919  0.71946387  0.12521837  1
  B  B6  1  0.16079176  0.28053591  0.12521837  1
  B  B7  1  0.33920872  0.78053579  0.62521865  1
  B  B8  1  0.66079224  0.21946398  0.62521865  1
  B  B9  1  0.16079176  0.28053591  0.87478220  1
  B  B10  1  0.83920919  0.71946387  0.87478220  1
  B  B11  1  0.83573651  0.99241329  0.50000028  1
  B  B12  1  0.16426445  0.00758649  0.50000028  1
  B  B13  1  0.66426493  0.49241340  0.00000000  1
  B  B14  1  0.33573603  0.50758637  0.00000000  1
  B  B15  1  0.14846222  0.77074534  0.00000000  1
  B  B16  1  0.85153874  0.22925443  0.00000000  1
  B  B17  1  0.35153826  0.27074546  0.50000028  1
  B  B18  1  0.64846269  0.72925432  0.50000028  1
  B  B19  1  0.34663005  0.09304565  0.29213541  1
  B  B20  1  0.65337090  0.90695412  0.29213541  1
  B  B21  1  0.15337042  0.59304554  0.20786488  1
  B  B22  1  0.84663053  0.40695423  0.20786488  1
  B  B23  1  0.65337090  0.90695412  0.70786516  1
  B  B24  1  0.34663005  0.09304565  0.70786516  1
  B  B25  1  0.84663053  0.40695423  0.79213569  1
  B  B26  1  0.83047022  0.48092512  0.50000028  1
  B  B27  1  0.16953074  0.51907466  0.50000028  1
