# generated using pymatgen
data_NbFe2
_symmetry_space_group_name_H-M   'P 1'
_cell_length_a   4.76057730
_cell_length_b   4.76057730
_cell_length_c   7.77029278
_cell_angle_alpha   90.00000000
_cell_angle_beta   90.00000000
_cell_angle_gamma   119.99985779
_symmetry_Int_Tables_number   1
_chemical_formula_structural   NbFe2
_chemical_formula_sum   'Nb4 Fe8'
_cell_volume   152.50633355
_cell_formula_units_Z   4
loop_
 _symmetry_equiv_pos_site_id
 _symmetry_equiv_pos_as_xyz
  1  'x, y, z'
loop_
 _atom_site_type_symbol
 _atom_site_label
 _atom_site_symmetry_multiplicity
 _atom_site_fract_x
 _atom_site_fract_y
 _atom_site_fract_z
 _atom_site_occupancy
  Nb  Nb0  1  0.33333068  0.66666774  0.06545046  1
  Nb  Nb1  1  0.66666774  0.33333068  0.56545028  1
  Nb  Nb2  1  0.66666774  0.33333068  0.93454919  1
  Nb  Nb3  1  0.33333068  0.66666774  0.43454937  1
  Fe  Fe4  1  0.00000000  0.00000000  0.00000000  1
  Fe  Fe5  1  0.00000000  0.00000000  0.49999982  1
  Fe  Fe6  1  0.82922239  0.65846229  0.24999991  1
  Fe  Fe7  1  0.34153613  0.17077603  0.24999991  1
  Fe  Fe8  1  0.82922293  0.17077549  0.24999991  1
  Fe  Fe9  1  0.17077603  0.34153613  0.74999973  1
  Fe  Fe10  1  0.65846229  0.82922239  0.74999973  1
  Fe  Fe11  1  0.17077549  0.82922293  0.74999973  1
