# generated using pymatgen
data_ZrBeCd
_symmetry_space_group_name_H-M   'P 1'
_cell_length_a   2.98626754
_cell_length_b   2.98626754
_cell_length_c   7.07728912
_cell_angle_alpha   90.00000000
_cell_angle_beta   90.00000000
_cell_angle_gamma   119.99999421
_symmetry_Int_Tables_number   1
_chemical_formula_structural   ZrBeCd
_chemical_formula_sum   'Zr1 Be1 Cd1'
_cell_volume   54.65816169
_cell_formula_units_Z   1
loop_
 _symmetry_equiv_pos_site_id
 _symmetry_equiv_pos_as_xyz
  1  'x, y, z'
loop_
 _atom_site_type_symbol
 _atom_site_label
 _atom_site_symmetry_multiplicity
 _atom_site_fract_x
 _atom_site_fract_y
 _atom_site_fract_z
 _atom_site_occupancy
  Zr  Zr0  1  0.33333192  0.66666547  0.68983511  1
  Be  Be1  1  -0.00000000  0.00000000  0.00642126  1
  Cd  Cd2  1  0.66666547  0.33333192  0.30374376  1
