# generated using pymatgen
data_Er3(CuGe)4
_symmetry_space_group_name_H-M   'P 1'
_cell_length_a   7.94052742
_cell_length_b   7.94052742
_cell_length_c   7.94052742
_cell_angle_alpha   149.65466395
_cell_angle_beta   130.74715563
_cell_angle_gamma   58.95452680
_symmetry_Int_Tables_number   1
_chemical_formula_structural   Er3(CuGe)4
_chemical_formula_sum   'Er3 Cu4 Ge4'
_cell_volume   190.14168848
_cell_formula_units_Z   1
loop_
 _symmetry_equiv_pos_site_id
 _symmetry_equiv_pos_as_xyz
  1  'x, y, z'
loop_
 _atom_site_type_symbol
 _atom_site_label
 _atom_site_symmetry_multiplicity
 _atom_site_fract_x
 _atom_site_fract_y
 _atom_site_fract_z
 _atom_site_occupancy
  Er  Er0  1  0.50000028  0.00000000  0.50000028  1
  Er  Er1  1  0.87012945  0.87012945  -0.00000000  1
  Er  Er2  1  0.12986992  0.12986992  0.00000000  1
  Cu  Cu3  1  0.47800451  0.66887591  0.80912631  1
  Cu  Cu4  1  0.52199546  0.33112263  0.19087282  1
  Cu  Cu5  1  0.14025040  0.33112181  0.80912631  1
  Cu  Cu6  1  0.85974956  0.66887674  0.19087282  1
  Ge  Ge7  1  0.28332672  0.78332558  0.49999886  1
  Ge  Ge8  1  0.71667325  0.21667296  0.50000028  1
  Ge  Ge9  1  0.80715920  0.49999968  0.30715951  1
  Ge  Ge10  1  0.19284077  0.49999886  0.69283962  1
