# generated using pymatgen
data_GePt
_symmetry_space_group_name_H-M   'P 1'
_cell_length_a   3.74995104
_cell_length_b   5.86735553
_cell_length_c   6.18371371
_cell_angle_alpha   90.00000000
_cell_angle_beta   90.00000000
_cell_angle_gamma   90.00000000
_symmetry_Int_Tables_number   1
_chemical_formula_structural   GePt
_chemical_formula_sum   'Ge4 Pt4'
_cell_volume   136.05589946
_cell_formula_units_Z   4
loop_
 _symmetry_equiv_pos_site_id
 _symmetry_equiv_pos_as_xyz
  1  'x, y, z'
loop_
 _atom_site_type_symbol
 _atom_site_label
 _atom_site_symmetry_multiplicity
 _atom_site_fract_x
 _atom_site_fract_y
 _atom_site_fract_z
 _atom_site_occupancy
  Ge  Ge0  1  0.24999993  0.18870123  0.41208313  1
  Ge  Ge1  1  0.74999979  0.31129915  0.91208283  1
  Ge  Ge2  1  0.74999979  0.81129953  0.58791627  1
  Ge  Ge3  1  0.24999993  0.68870161  0.08791657  1
  Pt  Pt4  1  0.24999993  -0.00197518  0.80597135  1
  Pt  Pt5  1  0.74999979  0.50197556  0.30597165  1
  Pt  Pt6  1  0.74999979  0.00197518  0.19402805  1
  Pt  Pt7  1  0.24999993  0.49802520  0.69402775  1
