# generated using pymatgen
data_BeNiTe2
_symmetry_space_group_name_H-M   'P 1'
_cell_length_a   7.69416257
_cell_length_b   7.69416257
_cell_length_c   7.69416257
_cell_angle_alpha   152.84618362
_cell_angle_beta   152.84618362
_cell_angle_gamma   38.77886397
_symmetry_Int_Tables_number   1
_chemical_formula_structural   BeNiTe2
_chemical_formula_sum   'Be1 Ni1 Te2'
_cell_volume   94.71070059
_cell_formula_units_Z   1
loop_
 _symmetry_equiv_pos_site_id
 _symmetry_equiv_pos_as_xyz
  1  'x, y, z'
loop_
 _atom_site_type_symbol
 _atom_site_label
 _atom_site_symmetry_multiplicity
 _atom_site_fract_x
 _atom_site_fract_y
 _atom_site_fract_z
 _atom_site_occupancy
  Be  Be0  1  0.50000002  0.50000002  0.00000000  1
  Ni  Ni1  1  0.75000071  0.25000001  0.50000070  1
  Te  Te2  1  0.00000000  0.00000000  0.00000000  1
  Te  Te3  1  0.25000001  0.75000071  0.50000070  1
