# generated using pymatgen
data_DyFe3
_symmetry_space_group_name_H-M   'P 1'
_cell_length_a   8.47099958
_cell_length_b   8.47099958
_cell_length_c   8.47099958
_cell_angle_alpha   34.03382600
_cell_angle_beta   34.03382600
_cell_angle_gamma   34.03382600
_symmetry_Int_Tables_number   1
_chemical_formula_structural   DyFe3
_chemical_formula_sum   'Dy3 Fe9'
_cell_volume   169.73543070
_cell_formula_units_Z   3
loop_
 _symmetry_equiv_pos_site_id
 _symmetry_equiv_pos_as_xyz
  1  'x, y, z'
loop_
 _atom_site_type_symbol
 _atom_site_label
 _atom_site_symmetry_multiplicity
 _atom_site_fract_x
 _atom_site_fract_y
 _atom_site_fract_z
 _atom_site_occupancy
  Dy  Dy0  1  0.14030494  0.14030494  0.14030502  1
  Dy  Dy1  1  0.85969512  0.85969512  0.85969562  1
  Dy  Dy2  1  0.00000000  0.00000000  0.00000000  1
  Fe  Fe3  1  0.08046066  0.57997110  0.57997184  1
  Fe  Fe4  1  0.57997110  0.08046066  0.57997184  1
  Fe  Fe5  1  0.57997176  0.57997176  0.08046056  1
  Fe  Fe6  1  0.91953941  0.42002896  0.42002881  1
  Fe  Fe7  1  0.42002831  0.42002831  0.91954008  1
  Fe  Fe8  1  0.42002896  0.91953941  0.42002881  1
  Fe  Fe9  1  0.33399081  0.33399081  0.33399100  1
  Fe  Fe10  1  0.66600926  0.66600926  0.66600965  1
  Fe  Fe11  1  0.50000003  0.50000003  0.50000032  1
