# generated using pymatgen
data_CuSeO3
_symmetry_space_group_name_H-M   'P 1'
_cell_length_a   5.37204936
_cell_length_b   6.02633076
_cell_length_c   7.29121384
_cell_angle_alpha   90.00000000
_cell_angle_beta   90.00000000
_cell_angle_gamma   90.00000000
_symmetry_Int_Tables_number   1
_chemical_formula_structural   CuSeO3
_chemical_formula_sum   'Cu4 Se4 O12'
_cell_volume   236.04390715
_cell_formula_units_Z   4
loop_
 _symmetry_equiv_pos_site_id
 _symmetry_equiv_pos_as_xyz
  1  'x, y, z'
loop_
 _atom_site_type_symbol
 _atom_site_label
 _atom_site_symmetry_multiplicity
 _atom_site_fract_x
 _atom_site_fract_y
 _atom_site_fract_z
 _atom_site_occupancy
  Cu  Cu0  1  0.50000006  0.00000000  0.00000000  1
  Cu  Cu1  1  0.00000000  0.49999994  0.00000000  1
  Cu  Cu2  1  0.50000006  0.00000000  0.49999974  1
  Cu  Cu3  1  0.00000000  0.49999994  0.49999974  1
  Se  Se4  1  0.49753440  0.46505441  0.24999987  1
  Se  Se5  1  0.99753446  0.03494553  0.74999960  1
  Se  Se6  1  0.00246566  0.96505434  0.24999987  1
  Se  Se7  1  0.50246572  0.53494547  0.74999960  1
  O  O8  1  0.09689018  0.20124654  0.93206277  1
  O  O9  1  0.33445311  0.92990099  0.24999987  1
  O  O10  1  0.90310994  0.79875334  0.43206303  1
  O  O11  1  0.40310988  0.70124647  0.56793644  1
  O  O12  1  0.90310994  0.79875334  0.06793671  1
  O  O13  1  0.40310988  0.70124647  0.93206277  1
  O  O14  1  0.09689018  0.20124654  0.56793644  1
  O  O15  1  0.59689024  0.29875340  0.43206303  1
  O  O16  1  0.16554695  0.42990106  0.24999987  1
  O  O17  1  0.66554701  0.07009888  0.74999960  1
  O  O18  1  0.83445317  0.57009882  0.74999960  1
  O  O19  1  0.59689024  0.29875340  0.06793671  1
