# generated using pymatgen
data_SrBeNi
_symmetry_space_group_name_H-M   'P 1'
_cell_length_a   3.88280225
_cell_length_b   3.88280225
_cell_length_c   4.52901548
_cell_angle_alpha   90.00000000
_cell_angle_beta   90.00000000
_cell_angle_gamma   119.99999801
_symmetry_Int_Tables_number   1
_chemical_formula_structural   SrBeNi
_chemical_formula_sum   'Sr1 Be1 Ni1'
_cell_volume   59.13232978
_cell_formula_units_Z   1
loop_
 _symmetry_equiv_pos_site_id
 _symmetry_equiv_pos_as_xyz
  1  'x, y, z'
loop_
 _atom_site_type_symbol
 _atom_site_label
 _atom_site_symmetry_multiplicity
 _atom_site_fract_x
 _atom_site_fract_y
 _atom_site_fract_z
 _atom_site_occupancy
  Sr  Sr0  1  0.66666693  0.33333247  0.33327098  1
  Be  Be1  1  0.00000000  0.00000000  0.83340411  1
  Ni  Ni2  1  0.33333247  0.66666693  0.83332590  1
