# generated using pymatgen
data_MgBeAl4O8
_symmetry_space_group_name_H-M   'P 1'
_cell_length_a   5.65081041
_cell_length_b   5.65081041
_cell_length_c   18.28860577
_cell_angle_alpha   90.00000000
_cell_angle_beta   90.00000000
_cell_angle_gamma   119.99999683
_symmetry_Int_Tables_number   1
_chemical_formula_structural   MgBeAl4O8
_chemical_formula_sum   'Mg4 Be4 Al16 O32'
_cell_volume   505.74630300
_cell_formula_units_Z   4
loop_
 _symmetry_equiv_pos_site_id
 _symmetry_equiv_pos_as_xyz
  1  'x, y, z'
loop_
 _atom_site_type_symbol
 _atom_site_label
 _atom_site_symmetry_multiplicity
 _atom_site_fract_x
 _atom_site_fract_y
 _atom_site_fract_z
 _atom_site_occupancy
  Mg  Mg0  1  0.00000000  0.00000000  0.84434248  1
  Mg  Mg1  1  0.00000000  0.00000000  0.34434236  1
  Mg  Mg2  1  0.66666799  0.33333366  0.59459450  1
  Mg  Mg3  1  0.33333366  0.66666799  0.09459439  1
  Be  Be4  1  0.66666799  0.33333366  0.78154661  1
  Be  Be5  1  0.33333366  0.66666799  0.28154649  1
  Be  Be6  1  0.33333366  0.66666799  0.54564440  1
  Be  Be7  1  0.66666799  0.33333366  0.04564429  1
  Al  Al8  1  0.50130170  0.49869995  0.43767886  1
  Al  Al9  1  0.50130153  0.00260292  0.43767886  1
  Al  Al10  1  0.99739873  0.49870012  0.43767886  1
  Al  Al11  1  0.49869995  0.50130170  0.93767897  1
  Al  Al12  1  0.00260292  0.50130153  0.93767897  1
  Al  Al13  1  0.32677990  0.16339003  0.18647158  1
  Al  Al14  1  0.83661144  0.16339021  0.18647158  1
  Al  Al15  1  0.49870012  0.99739873  0.93767897  1
  Al  Al16  1  0.67322175  0.83661162  0.68647169  1
  Al  Al17  1  0.16339021  0.83661144  0.68647169  1
  Al  Al18  1  0.16339003  0.32677990  0.68647169  1
  Al  Al19  1  0.66666799  0.33333366  0.31282851  1
  Al  Al20  1  0.33333366  0.66666799  0.81282863  1
  Al  Al21  1  0.00000000  0.00000000  0.05349912  1
  Al  Al22  1  0.00000000  0.00000000  0.55349924  1
  Al  Al23  1  0.83661162  0.67322175  0.18647158  1
  O  O24  1  0.98697680  0.49348815  0.24829724  1
  O  O25  1  0.50651350  0.01302485  0.24829724  1
  O  O26  1  0.50651366  0.49348799  0.24829724  1
  O  O27  1  0.36012249  0.18006134  0.00020739  1
  O  O28  1  0.81994031  0.63987916  0.00020739  1
  O  O29  1  0.81994015  0.18006150  0.00020739  1
  O  O30  1  0.29521388  0.14760752  0.62535449  1
  O  O31  1  0.18006134  0.36012249  0.50020750  1
  O  O32  1  0.18006150  0.81994015  0.50020750  1
  O  O33  1  0.85239413  0.70478777  0.62535449  1
  O  O34  1  0.85239394  0.14760771  0.62535449  1
  O  O35  1  0.70478777  0.85239413  0.12535437  1
  O  O36  1  0.49348799  0.50651366  0.74829735  1
  O  O37  1  0.63987916  0.81994031  0.50020750  1
  O  O38  1  0.49348815  0.98697680  0.74829735  1
  O  O39  1  0.33333366  0.66666799  0.37878879  1
  O  O40  1  0.36777653  0.18388786  0.37859933  1
  O  O41  1  0.81611363  0.18388802  0.37859933  1
  O  O42  1  0.81611379  0.63222511  0.37859933  1
  O  O43  1  0.63222511  0.81611379  0.87859944  1
  O  O44  1  0.18388802  0.81611363  0.87859944  1
  O  O45  1  0.18388786  0.36777653  0.87859944  1
  O  O46  1  0.66666799  0.33333366  0.13336585  1
  O  O47  1  0.33333366  0.66666799  0.63336597  1
  O  O48  1  0.33333366  0.66666799  0.99057979  1
  O  O49  1  0.66666799  0.33333366  0.49057968  1
  O  O50  1  0.14760752  0.29521388  0.12535437  1
  O  O51  1  0.66666799  0.33333366  0.87878891  1
  O  O52  1  0.00000000  0.00000000  0.23998276  1
  O  O53  1  0.00000000  0.00000000  0.73998287  1
  O  O54  1  0.01302485  0.50651350  0.74829735  1
  O  O55  1  0.14760771  0.85239394  0.12535437  1
