# generated using pymatgen
data_RbCr5Te8
_symmetry_space_group_name_H-M   'P 1'
_cell_length_a   10.40342097
_cell_length_b   10.40342097
_cell_length_c   9.61357396
_cell_angle_alpha   75.98778126
_cell_angle_beta   75.98778126
_cell_angle_gamma   22.14367582
_symmetry_Int_Tables_number   1
_chemical_formula_structural   RbCr5Te8
_chemical_formula_sum   'Rb1 Cr5 Te8'
_cell_volume   380.06772430
_cell_formula_units_Z   1
loop_
 _symmetry_equiv_pos_site_id
 _symmetry_equiv_pos_as_xyz
  1  'x, y, z'
loop_
 _atom_site_type_symbol
 _atom_site_label
 _atom_site_symmetry_multiplicity
 _atom_site_fract_x
 _atom_site_fract_y
 _atom_site_fract_z
 _atom_site_occupancy
  Rb  Rb0  1  0.50000003  0.50000003  0.49999981  1
  Cr  Cr1  1  0.00000000  0.00000000  0.00000000  1
  Cr  Cr2  1  0.65839870  0.65839870  0.01595129  1
  Cr  Cr3  1  0.34160136  0.34160136  0.98404832  1
  Cr  Cr4  1  0.70422540  0.70422540  0.66802802  1
  Cr  Cr5  1  0.29577466  0.29577466  0.33197160  1
  Te  Te6  1  0.42721058  0.42721058  0.16250848  1
  Te  Te7  1  0.57278947  0.57278947  0.83749114  1
  Te  Te8  1  0.91231443  0.91231443  0.82563636  1
  Te  Te9  1  0.08768563  0.08768563  0.17436325  1
  Te  Te10  1  0.83043297  0.83043297  0.49303579  1
  Te  Te11  1  0.16956709  0.16956709  0.50696382  1
  Te  Te12  1  0.76076612  0.76076612  0.15769824  1
  Te  Te13  1  0.23923394  0.23923394  0.84230138  1
