# generated using pymatgen
data_YbAgSe2
_symmetry_space_group_name_H-M   'P 1'
_cell_length_a   4.31537180
_cell_length_b   6.71140016
_cell_length_c   14.10231717
_cell_angle_alpha   90.00000000
_cell_angle_beta   90.00000000
_cell_angle_gamma   90.00000000
_symmetry_Int_Tables_number   1
_chemical_formula_structural   YbAgSe2
_chemical_formula_sum   'Yb4 Ag4 Se8'
_cell_volume   408.43394723
_cell_formula_units_Z   4
loop_
 _symmetry_equiv_pos_site_id
 _symmetry_equiv_pos_as_xyz
  1  'x, y, z'
loop_
 _atom_site_type_symbol
 _atom_site_label
 _atom_site_symmetry_multiplicity
 _atom_site_fract_x
 _atom_site_fract_y
 _atom_site_fract_z
 _atom_site_occupancy
  Yb  Yb0  1  0.72831466  0.30710100  0.87490059  1
  Yb  Yb1  1  0.22831487  0.19289898  0.12509961  1
  Yb  Yb2  1  0.77168471  0.69289897  0.37490049  1
  Yb  Yb3  1  0.27168492  0.80710099  0.62509971  1
  Ag  Ag4  1  -0.01294175  0.30294432  0.62523446  1
  Ag  Ag5  1  0.48705804  0.19705567  0.37476574  1
  Ag  Ag6  1  0.51294154  0.69705566  0.12523436  1
  Ag  Ag7  1  0.01294175  0.80294430  0.87476584  1
  Se  Se8  1  0.22633214  0.10506161  0.77313362  1
  Se  Se9  1  0.72633193  0.39493838  0.22686658  1
  Se  Se10  1  0.27366765  0.89493837  0.27313352  1
  Se  Se11  1  0.77366744  0.60506159  0.72686668  1
  Se  Se12  1  0.23606687  0.50815488  0.98128769  1
  Se  Se13  1  0.73606666  0.99184509  0.01871251  1
  Se  Se14  1  0.26393292  0.49184510  0.48128759  1
  Se  Se15  1  0.76393272  0.00815489  0.51871261  1
