# generated using pymatgen
data_PuB4Os
_symmetry_space_group_name_H-M   'P 1'
_cell_length_a   3.57416317
_cell_length_b   5.99980045
_cell_length_c   11.61695831
_cell_angle_alpha   90.00000000
_cell_angle_beta   90.00000000
_cell_angle_gamma   90.00000000
_symmetry_Int_Tables_number   1
_chemical_formula_structural   PuB4Os
_chemical_formula_sum   'Pu4 B16 Os4'
_cell_volume   249.11714159
_cell_formula_units_Z   4
loop_
 _symmetry_equiv_pos_site_id
 _symmetry_equiv_pos_as_xyz
  1  'x, y, z'
loop_
 _atom_site_type_symbol
 _atom_site_label
 _atom_site_symmetry_multiplicity
 _atom_site_fract_x
 _atom_site_fract_y
 _atom_site_fract_z
 _atom_site_occupancy
  Pu  Pu0  1  0.00000000  0.12734173  0.85017867  1
  Pu  Pu1  1  0.00000000  0.87265819  0.14982147  1
  Pu  Pu2  1  0.00000000  0.37265823  0.35017860  1
  Pu  Pu3  1  0.00000000  0.62734169  0.64982155  1
  B  B4  1  0.49999956  0.97143627  0.69145099  1
  B  B5  1  0.49999956  0.02856365  0.30854916  1
  B  B6  1  0.49999956  0.52856362  0.19145092  1
  B  B7  1  0.49999956  0.47143631  0.80854923  1
  B  B8  1  0.49999956  0.88632266  0.54660485  1
  B  B9  1  0.49999956  0.11367726  0.45339530  1
  B  B10  1  0.49999956  0.61367722  0.04660477  1
  B  B11  1  0.49999956  0.38632270  0.95339537  1
  B  B12  1  0.49999956  0.86473111  0.96922670  1
  B  B13  1  0.49999956  0.13526882  0.03077345  1
  B  B14  1  0.49999956  0.63526878  0.46922662  1
  B  B15  1  0.49999956  0.36473115  0.53077352  1
  B  B16  1  0.49999956  0.78749492  0.81308799  1
  B  B17  1  0.49999956  0.21250501  0.18691216  1
  B  B18  1  0.49999956  0.71250497  0.31308792  1
  B  B19  1  0.49999956  0.28749496  0.68691223  1
  Os  Os20  1  0.00000000  0.13924276  0.59327484  1
  Os  Os21  1  0.00000000  0.86075717  0.40672530  1
  Os  Os22  1  0.00000000  0.36075720  0.09327477  1
  Os  Os23  1  0.00000000  0.63924272  0.90672537  1
