# generated using pymatgen
data_BeInCl4
_symmetry_space_group_name_H-M   'P 1'
_cell_length_a   6.04223765
_cell_length_b   6.04223765
_cell_length_c   6.04223765
_cell_angle_alpha   60.00000000
_cell_angle_beta   60.00000000
_cell_angle_gamma   60.00000000
_symmetry_Int_Tables_number   1
_chemical_formula_structural   BeInCl4
_chemical_formula_sum   'Be1 In1 Cl4'
_cell_volume   155.98340982
_cell_formula_units_Z   1
loop_
 _symmetry_equiv_pos_site_id
 _symmetry_equiv_pos_as_xyz
  1  'x, y, z'
loop_
 _atom_site_type_symbol
 _atom_site_label
 _atom_site_symmetry_multiplicity
 _atom_site_fract_x
 _atom_site_fract_y
 _atom_site_fract_z
 _atom_site_occupancy
  Be  Be0  1  0.00000000  0.00000000  0.00000000  1
  In  In1  1  0.25000016  0.25000016  0.25000016  1
  Cl  Cl2  1  0.12504633  0.62498533  0.62498533  1
  Cl  Cl3  1  0.62498533  0.62498533  0.62498533  1
  Cl  Cl4  1  0.62498533  0.12504633  0.62498533  1
  Cl  Cl5  1  0.62498533  0.62498533  0.12504633  1
