# generated using pymatgen
data_BaCo2Sb
_symmetry_space_group_name_H-M   'P 1'
_cell_length_a   3.46563362
_cell_length_b   3.46563362
_cell_length_c   7.06889409
_cell_angle_alpha   90.00000000
_cell_angle_beta   90.00000000
_cell_angle_gamma   90.00000000
_symmetry_Int_Tables_number   1
_chemical_formula_structural   BaCo2Sb
_chemical_formula_sum   'Ba1 Co2 Sb1'
_cell_volume   84.90177509
_cell_formula_units_Z   1
loop_
 _symmetry_equiv_pos_site_id
 _symmetry_equiv_pos_as_xyz
  1  'x, y, z'
loop_
 _atom_site_type_symbol
 _atom_site_label
 _atom_site_symmetry_multiplicity
 _atom_site_fract_x
 _atom_site_fract_y
 _atom_site_fract_z
 _atom_site_occupancy
  Ba  Ba0  1  0.49999948  0.49999948  0.49999971  1
  Co  Co1  1  0.00000000  0.00000000  0.83100576  1
  Co  Co2  1  0.00000000  0.00000000  0.16899366  1
  Sb  Sb3  1  0.49999948  0.49999948  0.00000000  1
