# generated using pymatgen
data_BaCa2Y
_symmetry_space_group_name_H-M   'P 1'
_cell_length_a   4.12228978
_cell_length_b   4.12228978
_cell_length_c   9.80491314
_cell_angle_alpha   90.00000000
_cell_angle_beta   90.00000000
_cell_angle_gamma   90.00000000
_symmetry_Int_Tables_number   1
_chemical_formula_structural   BaCa2Y
_chemical_formula_sum   'Ba1 Ca2 Y1'
_cell_volume   166.61756592
_cell_formula_units_Z   1
loop_
 _symmetry_equiv_pos_site_id
 _symmetry_equiv_pos_as_xyz
  1  'x, y, z'
loop_
 _atom_site_type_symbol
 _atom_site_label
 _atom_site_symmetry_multiplicity
 _atom_site_fract_x
 _atom_site_fract_y
 _atom_site_fract_z
 _atom_site_occupancy
  Ba  Ba0  1  0.50000003  0.50000003  0.73413290  1
  Ca  Ca1  1  0.00000000  0.00000000  0.03212329  1
  Ca  Ca2  1  0.50000003  0.50000003  0.26476102  1
  Y  Y3  1  0.00000000  0.00000000  0.46898331  1
