# generated using pymatgen
data_Sn4Au
_symmetry_space_group_name_H-M   'P 1'
_cell_length_a   6.85505792
_cell_length_b   6.85505792
_cell_length_c   6.62319391
_cell_angle_alpha   90.00000000
_cell_angle_beta   90.00000000
_cell_angle_gamma   121.82920165
_symmetry_Int_Tables_number   1
_chemical_formula_structural   Sn4Au
_chemical_formula_sum   'Sn8 Au2'
_cell_volume   264.43351930
_cell_formula_units_Z   2
loop_
 _symmetry_equiv_pos_site_id
 _symmetry_equiv_pos_as_xyz
  1  'x, y, z'
loop_
 _atom_site_type_symbol
 _atom_site_label
 _atom_site_symmetry_multiplicity
 _atom_site_fract_x
 _atom_site_fract_y
 _atom_site_fract_z
 _atom_site_occupancy
  Sn  Sn0  1  0.46669521  0.20589731  0.83365190  1
  Sn  Sn1  1  0.79410248  0.53330458  0.16634751  1
  Sn  Sn2  1  0.29410258  0.03330468  0.33365220  1
  Sn  Sn3  1  0.96669511  0.70589720  0.66634721  1
  Sn  Sn4  1  0.03330468  0.29410258  0.66634721  1
  Sn  Sn5  1  0.70589720  0.96669511  0.33365220  1
  Sn  Sn6  1  0.20589731  0.46669521  0.16634751  1
  Sn  Sn7  1  0.53330458  0.79410248  0.83365190  1
  Au  Au8  1  0.00000000  0.00000000  0.00000000  1
  Au  Au9  1  0.49999989  0.49999989  0.49999970  1
