# generated using pymatgen
data_Ba2FeMoO6
_symmetry_space_group_name_H-M   'P 1'
_cell_length_a   5.74276486
_cell_length_b   5.74403257
_cell_length_c   5.74276486
_cell_angle_alpha   59.99269740
_cell_angle_beta   60.01460521
_cell_angle_gamma   59.99269740
_symmetry_Int_Tables_number   1
_chemical_formula_structural   Ba2FeMoO6
_chemical_formula_sum   'Ba2 Fe1 Mo1 O6'
_cell_volume   133.95037121
_cell_formula_units_Z   1
loop_
 _symmetry_equiv_pos_site_id
 _symmetry_equiv_pos_as_xyz
  1  'x, y, z'
loop_
 _atom_site_type_symbol
 _atom_site_label
 _atom_site_symmetry_multiplicity
 _atom_site_fract_x
 _atom_site_fract_y
 _atom_site_fract_z
 _atom_site_occupancy
  Ba  Ba0  1  0.24999992  0.24999954  0.24999992  1
  Ba  Ba1  1  0.74999975  0.74999863  0.74999975  1
  Fe  Fe2  1  0.00000000  0.00000000  0.00000000  1
  Mo  Mo3  1  0.49999983  0.49999909  0.49999983  1
  O  O4  1  0.25867519  0.74132373  0.74132448  1
  O  O5  1  0.74132448  0.25867445  0.25867519  1
  O  O6  1  0.74132448  0.74132373  0.25867519  1
  O  O7  1  0.25867519  0.25867445  0.74132448  1
  O  O8  1  0.74137434  0.25862458  0.74137434  1
  O  O9  1  0.25862533  0.74137359  0.25862533  1
