# generated using pymatgen
data_CeZnPd
_symmetry_space_group_name_H-M   'P 1'
_cell_length_a   4.43693362
_cell_length_b   6.88356209
_cell_length_c   8.02354251
_cell_angle_alpha   90.00000000
_cell_angle_beta   90.00000000
_cell_angle_gamma   90.00000000
_symmetry_Int_Tables_number   1
_chemical_formula_structural   CeZnPd
_chemical_formula_sum   'Ce4 Zn4 Pd4'
_cell_volume   245.05429739
_cell_formula_units_Z   4
loop_
 _symmetry_equiv_pos_site_id
 _symmetry_equiv_pos_as_xyz
  1  'x, y, z'
loop_
 _atom_site_type_symbol
 _atom_site_label
 _atom_site_symmetry_multiplicity
 _atom_site_fract_x
 _atom_site_fract_y
 _atom_site_fract_z
 _atom_site_occupancy
  Ce  Ce0  1  0.24999980  0.03003421  0.30144185  1
  Ce  Ce1  1  0.74999939  0.46996563  0.80144169  1
  Ce  Ce2  1  0.74999939  0.96996548  0.69855784  1
  Ce  Ce3  1  0.24999980  0.53003406  0.19855800  1
  Zn  Zn4  1  0.24999980  0.65930390  0.57017014  1
  Zn  Zn5  1  0.74999939  0.84069565  0.07017029  1
  Zn  Zn6  1  0.74999939  0.34069580  0.42982955  1
  Zn  Zn7  1  0.24999980  0.15930405  0.92982939  1
  Pd  Pd8  1  0.24999980  0.26126532  0.60521520  1
  Pd  Pd9  1  0.74999939  0.23873452  0.10521535  1
  Pd  Pd10  1  0.74999939  0.73873437  0.39478449  1
  Pd  Pd11  1  0.24999980  0.76126517  0.89478433  1
