# generated using pymatgen
data_Ba4YTe
_symmetry_space_group_name_H-M   'P 1'
_cell_length_a   7.29581233
_cell_length_b   7.29581233
_cell_length_c   7.29581233
_cell_angle_alpha   60.00000000
_cell_angle_beta   60.00000000
_cell_angle_gamma   60.00000000
_symmetry_Int_Tables_number   1
_chemical_formula_structural   Ba4YTe
_chemical_formula_sum   'Ba4 Y1 Te1'
_cell_volume   274.60343490
_cell_formula_units_Z   1
loop_
 _symmetry_equiv_pos_site_id
 _symmetry_equiv_pos_as_xyz
  1  'x, y, z'
loop_
 _atom_site_type_symbol
 _atom_site_label
 _atom_site_symmetry_multiplicity
 _atom_site_fract_x
 _atom_site_fract_y
 _atom_site_fract_z
 _atom_site_occupancy
  Ba  Ba0  1  0.12654831  0.62448444  0.62448444  1
  Ba  Ba1  1  0.62448444  0.62448444  0.62448444  1
  Ba  Ba2  1  0.62448444  0.12654831  0.62448444  1
  Ba  Ba3  1  0.62448444  0.62448444  0.12654831  1
  Y  Y4  1  0.00000000  0.00000000  0.00000000  1
  Te  Te5  1  0.25000008  0.25000008  0.25000008  1
