# generated using pymatgen
data_Na4BeSi
_symmetry_space_group_name_H-M   'P 1'
_cell_length_a   5.85426909
_cell_length_b   5.85426909
_cell_length_c   5.85426909
_cell_angle_alpha   60.00000000
_cell_angle_beta   60.00000000
_cell_angle_gamma   60.00000000
_symmetry_Int_Tables_number   1
_chemical_formula_structural   Na4BeSi
_chemical_formula_sum   'Na4 Be1 Si1'
_cell_volume   141.87407549
_cell_formula_units_Z   1
loop_
 _symmetry_equiv_pos_site_id
 _symmetry_equiv_pos_as_xyz
  1  'x, y, z'
loop_
 _atom_site_type_symbol
 _atom_site_label
 _atom_site_symmetry_multiplicity
 _atom_site_fract_x
 _atom_site_fract_y
 _atom_site_fract_z
 _atom_site_occupancy
  Na  Na0  1  0.12605342  0.62464798  0.62464798  1
  Na  Na1  1  0.62464798  0.62464798  0.62464798  1
  Na  Na2  1  0.62464798  0.12605342  0.62464798  1
  Na  Na3  1  0.62464798  0.62464798  0.12605342  1
  Be  Be4  1  0.00000000  0.00000000  0.00000000  1
  Si  Si5  1  0.24999980  0.24999980  0.24999980  1
