# generated using pymatgen
data_Mg4BePd
_symmetry_space_group_name_H-M   'P 1'
_cell_length_a   5.42775887
_cell_length_b   5.42775887
_cell_length_c   5.42775887
_cell_angle_alpha   60.00000000
_cell_angle_beta   60.00000000
_cell_angle_gamma   60.00000000
_symmetry_Int_Tables_number   1
_chemical_formula_structural   Mg4BePd
_chemical_formula_sum   'Mg4 Be1 Pd1'
_cell_volume   113.06980410
_cell_formula_units_Z   1
loop_
 _symmetry_equiv_pos_site_id
 _symmetry_equiv_pos_as_xyz
  1  'x, y, z'
loop_
 _atom_site_type_symbol
 _atom_site_label
 _atom_site_symmetry_multiplicity
 _atom_site_fract_x
 _atom_site_fract_y
 _atom_site_fract_z
 _atom_site_occupancy
  Mg  Mg0  1  0.12578436  0.62473940  0.62473940  1
  Mg  Mg1  1  0.62473940  0.62473940  0.62473940  1
  Mg  Mg2  1  0.62473940  0.12578436  0.62473940  1
  Mg  Mg3  1  0.62473940  0.62473940  0.12578436  1
  Be  Be4  1  0.00000000  0.00000000  0.00000000  1
  Pd  Pd5  1  0.25000032  0.25000032  0.25000032  1
