# generated using pymatgen
data_Ba4NbSe
_symmetry_space_group_name_H-M   'P 1'
_cell_length_a   6.98299316
_cell_length_b   6.98299316
_cell_length_c   6.98299316
_cell_angle_alpha   60.00000000
_cell_angle_beta   60.00000000
_cell_angle_gamma   60.00000000
_symmetry_Int_Tables_number   1
_chemical_formula_structural   Ba4NbSe
_chemical_formula_sum   'Ba4 Nb1 Se1'
_cell_volume   240.77414603
_cell_formula_units_Z   1
loop_
 _symmetry_equiv_pos_site_id
 _symmetry_equiv_pos_as_xyz
  1  'x, y, z'
loop_
 _atom_site_type_symbol
 _atom_site_label
 _atom_site_symmetry_multiplicity
 _atom_site_fract_x
 _atom_site_fract_y
 _atom_site_fract_z
 _atom_site_occupancy
  Ba  Ba0  1  0.12372563  0.62542488  0.62542488  1
  Ba  Ba1  1  0.62542488  0.62542488  0.62542488  1
  Ba  Ba2  1  0.62542488  0.12372563  0.62542488  1
  Ba  Ba3  1  0.62542488  0.62542488  0.12372563  1
  Nb  Nb4  1  0.24999991  0.24999991  0.24999991  1
  Se  Se5  1  0.00000000  0.00000000  0.00000000  1
