# generated using pymatgen
data_ZnHIO4
_symmetry_space_group_name_H-M   'P 1'
_cell_length_a   6.27788044
_cell_length_b   5.62085271
_cell_length_c   6.33934224
_cell_angle_alpha   63.68339988
_cell_angle_beta   88.44401757
_cell_angle_gamma   86.48847949
_symmetry_Int_Tables_number   1
_chemical_formula_structural   ZnHIO4
_chemical_formula_sum   'Zn2 H2 I2 O8'
_cell_volume   200.13580931
_cell_formula_units_Z   2
loop_
 _symmetry_equiv_pos_site_id
 _symmetry_equiv_pos_as_xyz
  1  'x, y, z'
loop_
 _atom_site_type_symbol
 _atom_site_label
 _atom_site_symmetry_multiplicity
 _atom_site_fract_x
 _atom_site_fract_y
 _atom_site_fract_z
 _atom_site_occupancy
  Zn  Zn0  1  0.85308708  0.56567225  0.93806817  1
  Zn  Zn1  1  0.35308689  0.50374083  0.06193178  1
  H  H2  1  0.10419111  0.16740712  0.07411989  1
  H  H3  1  0.60419129  0.24152667  0.92588006  1
  I  I4  1  0.64017715  0.67685833  0.39728472  1
  I  I5  1  0.14017698  0.07414249  0.60271523  1
  O  O6  1  0.74450098  0.79688098  0.09059001  1
  O  O7  1  0.24450122  0.88747072  0.90940994  1
  O  O8  1  0.46806402  0.96559156  0.35147153  1
  O  O9  1  0.96806380  0.31706241  0.64852842  1
  O  O10  1  0.43777315  0.45598803  0.37979781  1
  O  O11  1  0.93777333  0.83578605  0.62020214  1
  O  O12  1  0.08420838  0.31319995  0.11987553  1
  O  O13  1  0.58420856  0.43307524  0.88012442  1
