# generated using pymatgen
data_Ta2BeCr
_symmetry_space_group_name_H-M   'P 1'
_cell_length_a   2.68799639
_cell_length_b   2.68799639
_cell_length_c   7.99131252
_cell_angle_alpha   90.00000000
_cell_angle_beta   90.00000000
_cell_angle_gamma   90.00000000
_symmetry_Int_Tables_number   1
_chemical_formula_structural   Ta2BeCr
_chemical_formula_sum   'Ta2 Be1 Cr1'
_cell_volume   57.73982689
_cell_formula_units_Z   1
loop_
 _symmetry_equiv_pos_site_id
 _symmetry_equiv_pos_as_xyz
  1  'x, y, z'
loop_
 _atom_site_type_symbol
 _atom_site_label
 _atom_site_symmetry_multiplicity
 _atom_site_fract_x
 _atom_site_fract_y
 _atom_site_fract_z
 _atom_site_occupancy
  Ta  Ta0  1  0.00000000  0.00000000  0.98218589  1
  Ta  Ta1  1  0.50000067  0.50000067  0.29154433  1
  Be  Be2  1  0.00000000  0.00000000  0.51893124  1
  Cr  Cr3  1  0.50000067  0.50000067  0.70733775  1
