# generated using pymatgen
data_DyNi3
_symmetry_space_group_name_H-M   'P 1'
_cell_length_a   8.57052388
_cell_length_b   8.57052388
_cell_length_c   8.57052388
_cell_angle_alpha   33.39585418
_cell_angle_beta   33.39585418
_cell_angle_gamma   33.39585418
_symmetry_Int_Tables_number   1
_chemical_formula_structural   DyNi3
_chemical_formula_sum   'Dy3 Ni9'
_cell_volume   169.83958379
_cell_formula_units_Z   3
loop_
 _symmetry_equiv_pos_site_id
 _symmetry_equiv_pos_as_xyz
  1  'x, y, z'
loop_
 _atom_site_type_symbol
 _atom_site_label
 _atom_site_symmetry_multiplicity
 _atom_site_fract_x
 _atom_site_fract_y
 _atom_site_fract_z
 _atom_site_occupancy
  Dy  Dy0  1  0.13876300  0.13876300  0.13876286  1
  Dy  Dy1  1  0.86123750  0.86123750  0.86123662  1
  Dy  Dy2  1  0.00000000  0.00000000  0.00000000  1
  Ni  Ni3  1  0.08092747  0.58276391  0.58276359  1
  Ni  Ni4  1  0.58276391  0.08092747  0.58276359  1
  Ni  Ni5  1  0.58276398  0.58276398  0.08092692  1
  Ni  Ni6  1  0.91907303  0.41723658  0.41723589  1
  Ni  Ni7  1  0.41723652  0.41723652  0.91907256  1
  Ni  Ni8  1  0.41723658  0.91907303  0.41723589  1
  Ni  Ni9  1  0.33308832  0.33308832  0.33308798  1
  Ni  Ni10  1  0.66691218  0.66691218  0.66691150  1
  Ni  Ni11  1  0.50000025  0.50000025  0.49999974  1
