# generated using pymatgen
data_PrNi3
_symmetry_space_group_name_H-M   'P 1'
_cell_length_a   8.77371550
_cell_length_b   8.77371550
_cell_length_c   8.77437050
_cell_angle_alpha   33.35499816
_cell_angle_beta   33.35499816
_cell_angle_gamma   33.36035622
_symmetry_Int_Tables_number   1
_chemical_formula_structural   PrNi3
_chemical_formula_sum   'Pr3 Ni9'
_cell_volume   181.83313819
_cell_formula_units_Z   3
loop_
 _symmetry_equiv_pos_site_id
 _symmetry_equiv_pos_as_xyz
  1  'x, y, z'
loop_
 _atom_site_type_symbol
 _atom_site_label
 _atom_site_symmetry_multiplicity
 _atom_site_fract_x
 _atom_site_fract_y
 _atom_site_fract_z
 _atom_site_occupancy
  Pr  Pr0  1  0.13845997  0.13845997  0.13856329  1
  Pr  Pr1  1  0.86153105  0.86153105  0.86162756  1
  Pr  Pr2  1  -0.00000433  -0.00000433  0.00007951  1
  Ni  Ni3  1  0.57999778  0.57999778  0.08157086  1
  Ni  Ni4  1  0.08151645  0.57995852  0.58004330  1
  Ni  Ni5  1  0.57995852  0.08151645  0.58004330  1
  Ni  Ni6  1  0.42000542  0.42000542  0.91858552  1
  Ni  Ni7  1  0.42004000  0.91849045  0.42012156  1
  Ni  Ni8  1  0.91849045  0.42004000  0.42012156  1
  Ni  Ni9  1  0.33265922  0.33265922  0.33256030  1
  Ni  Ni10  1  0.66734627  0.66734627  0.66759557  1
  Ni  Ni11  1  0.50000038  0.50000038  0.50008899  1
