# generated using pymatgen
data_InAs
_symmetry_space_group_name_H-M   'P 1'
_cell_length_a   4.10128559
_cell_length_b   4.10128559
_cell_length_c   17.66943269
_cell_angle_alpha   90.00000000
_cell_angle_beta   90.00000000
_cell_angle_gamma   90.16258338
_symmetry_Int_Tables_number   1
_chemical_formula_structural   InAs
_chemical_formula_sum   'In6 As6'
_cell_volume   297.20826518
_cell_formula_units_Z   6
loop_
 _symmetry_equiv_pos_site_id
 _symmetry_equiv_pos_as_xyz
  1  'x, y, z'
loop_
 _atom_site_type_symbol
 _atom_site_label
 _atom_site_symmetry_multiplicity
 _atom_site_fract_x
 _atom_site_fract_y
 _atom_site_fract_z
 _atom_site_occupancy
  In  In0  1  0.97415188  0.02584835  0.74999989  1
  In  In1  1  0.02584835  0.97415188  0.24999996  1
  In  In2  1  0.51783026  0.48216998  0.90993768  1
  In  In3  1  0.48216998  0.51783026  0.40993776  1
  In  In4  1  0.51783026  0.48216998  0.59006209  1
  In  In5  1  0.48216998  0.51783026  0.09006217  1
  As  As6  1  0.47328953  0.52671070  0.74999989  1
  As  As7  1  0.52671070  0.47328953  0.24999996  1
  As  As8  1  0.01752245  0.98247778  0.92900912  1
  As  As9  1  0.98247778  0.01752245  0.42900920  1
  As  As10  1  0.01752245  0.98247778  0.57099065  1
  As  As11  1  0.98247778  0.01752245  0.07099073  1
