# generated using pymatgen
data_BeTlCl2
_symmetry_space_group_name_H-M   'P 1'
_cell_length_a   5.17493814
_cell_length_b   5.17493814
_cell_length_c   3.61523097
_cell_angle_alpha   90.00000000
_cell_angle_beta   90.00000000
_cell_angle_gamma   90.00000000
_symmetry_Int_Tables_number   1
_chemical_formula_structural   BeTlCl2
_chemical_formula_sum   'Be1 Tl1 Cl2'
_cell_volume   96.81583020
_cell_formula_units_Z   1
loop_
 _symmetry_equiv_pos_site_id
 _symmetry_equiv_pos_as_xyz
  1  'x, y, z'
loop_
 _atom_site_type_symbol
 _atom_site_label
 _atom_site_symmetry_multiplicity
 _atom_site_fract_x
 _atom_site_fract_y
 _atom_site_fract_z
 _atom_site_occupancy
  Be  Be0  1  0.00000000  0.00000000  0.49999987  1
  Tl  Tl1  1  0.50000018  0.50000018  0.49999987  1
  Cl  Cl2  1  0.50000018  0.00000000  0.00000000  1
  Cl  Cl3  1  0.00000000  0.50000018  0.00000000  1
