# generated using pymatgen
data_CaIn4Ni
_symmetry_space_group_name_H-M   'P 1'
_cell_length_a   8.65806073
_cell_length_b   8.65806073
_cell_length_c   7.38165024
_cell_angle_alpha   90.00000000
_cell_angle_beta   90.00000000
_cell_angle_gamma   150.29248952
_symmetry_Int_Tables_number   1
_chemical_formula_structural   CaIn4Ni
_chemical_formula_sum   'Ca2 In8 Ni2'
_cell_volume   274.22177737
_cell_formula_units_Z   2
loop_
 _symmetry_equiv_pos_site_id
 _symmetry_equiv_pos_as_xyz
  1  'x, y, z'
loop_
 _atom_site_type_symbol
 _atom_site_label
 _atom_site_symmetry_multiplicity
 _atom_site_fract_x
 _atom_site_fract_y
 _atom_site_fract_z
 _atom_site_occupancy
  Ca  Ca0  1  0.12559669  0.87440445  0.24999999  1
  Ca  Ca1  1  0.87440445  0.12559669  0.74999998  1
  In  In2  1  0.50000057  0.50000057  0.00000000  1
  In  In3  1  0.50000057  0.50000057  0.49999998  1
  In  In4  1  0.92917171  0.07082943  0.24999999  1
  In  In5  1  0.07082943  0.92917171  0.74999998  1
  In  In6  1  0.31284072  0.68716043  0.04665287  1
  In  In7  1  0.68716043  0.31284072  0.54665285  1
  In  In8  1  0.31284072  0.68716043  0.45334711  1
  In  In9  1  0.68716043  0.31284072  0.95334710  1
  Ni  Ni10  1  0.77421546  0.22578568  0.24999999  1
  Ni  Ni11  1  0.22578568  0.77421546  0.74999998  1
