# generated using pymatgen
data_ScBeZn2
_symmetry_space_group_name_H-M   'P 1'
_cell_length_a   4.35399500
_cell_length_b   4.35399500
_cell_length_c   4.35399500
_cell_angle_alpha   120.00134566
_cell_angle_beta   120.00134566
_cell_angle_gamma   89.99766927
_symmetry_Int_Tables_number   1
_chemical_formula_structural   ScBeZn2
_chemical_formula_sum   'Sc1 Be1 Zn2'
_cell_volume   58.36331416
_cell_formula_units_Z   1
loop_
 _symmetry_equiv_pos_site_id
 _symmetry_equiv_pos_as_xyz
  1  'x, y, z'
loop_
 _atom_site_type_symbol
 _atom_site_label
 _atom_site_symmetry_multiplicity
 _atom_site_fract_x
 _atom_site_fract_y
 _atom_site_fract_z
 _atom_site_occupancy
  Sc  Sc0  1  0.74999910  0.24999984  0.49999926  1
  Be  Be1  1  0.49999967  0.49999967  0.00000000  1
  Zn  Zn2  1  0.00000000  0.00000000  0.00000000  1
  Zn  Zn3  1  0.24999984  0.74999910  0.49999926  1
