# generated using pymatgen
data_TaBePb4
_symmetry_space_group_name_H-M   'P 1'
_cell_length_a   6.23032247
_cell_length_b   6.23032247
_cell_length_c   6.23032247
_cell_angle_alpha   60.00000000
_cell_angle_beta   60.00000000
_cell_angle_gamma   60.00000000
_symmetry_Int_Tables_number   1
_chemical_formula_structural   TaBePb4
_chemical_formula_sum   'Ta1 Be1 Pb4'
_cell_volume   171.00805903
_cell_formula_units_Z   1
loop_
 _symmetry_equiv_pos_site_id
 _symmetry_equiv_pos_as_xyz
  1  'x, y, z'
loop_
 _atom_site_type_symbol
 _atom_site_label
 _atom_site_symmetry_multiplicity
 _atom_site_fract_x
 _atom_site_fract_y
 _atom_site_fract_z
 _atom_site_occupancy
  Ta  Ta0  1  0.24999981  0.24999981  0.24999981  1
  Be  Be1  1  0.00000000  0.00000000  0.00000000  1
  Pb  Pb2  1  0.12638203  0.62453850  0.62453850  1
  Pb  Pb3  1  0.62453850  0.62453850  0.62453850  1
  Pb  Pb4  1  0.62453850  0.12638203  0.62453850  1
  Pb  Pb5  1  0.62453850  0.62453850  0.12638203  1
