# generated using pymatgen
data_ZnWO4
_symmetry_space_group_name_H-M   'P 1'
_cell_length_a   5.77365783
_cell_length_b   4.70459461
_cell_length_c   4.97136463
_cell_angle_alpha   89.36486865
_cell_angle_beta   90.00000000
_cell_angle_gamma   90.00000000
_symmetry_Int_Tables_number   1
_chemical_formula_structural   ZnWO4
_chemical_formula_sum   'Zn2 W2 O8'
_cell_volume   135.02748645
_cell_formula_units_Z   2
loop_
 _symmetry_equiv_pos_site_id
 _symmetry_equiv_pos_as_xyz
  1  'x, y, z'
loop_
 _atom_site_type_symbol
 _atom_site_label
 _atom_site_symmetry_multiplicity
 _atom_site_fract_x
 _atom_site_fract_y
 _atom_site_fract_z
 _atom_site_occupancy
  Zn  Zn0  1  0.67840907  0.49999944  0.25000006  1
  Zn  Zn1  1  0.32159130  0.49999929  0.74999998  1
  W  W2  1  0.18065381  -0.00000008  0.24999996  1
  W  W3  1  0.81934656  -0.00000024  0.74999988  1
  O  O4  1  0.10558106  0.78266622  0.93512147  1
  O  O5  1  0.10558106  0.21733235  0.56487848  1
  O  O6  1  0.89441931  0.21733251  0.06487856  1
  O  O7  1  0.89441931  0.78266638  0.43512155  1
  O  O8  1  0.37628140  0.74332575  0.40274750  1
  O  O9  1  0.37628140  0.25667313  0.09725262  1
  O  O10  1  0.62371898  0.25667298  0.59725254  1
  O  O11  1  0.62371898  0.74332559  0.90274742  1
