# generated using pymatgen
data_ScGeRh
_symmetry_space_group_name_H-M   'P 1'
_cell_length_a   4.13771089
_cell_length_b   6.54580998
_cell_length_c   7.44564957
_cell_angle_alpha   90.00000000
_cell_angle_beta   90.00000000
_cell_angle_gamma   90.00000000
_symmetry_Int_Tables_number   1
_chemical_formula_structural   ScGeRh
_chemical_formula_sum   'Sc4 Ge4 Rh4'
_cell_volume   201.66295595
_cell_formula_units_Z   4
loop_
 _symmetry_equiv_pos_site_id
 _symmetry_equiv_pos_as_xyz
  1  'x, y, z'
loop_
 _atom_site_type_symbol
 _atom_site_label
 _atom_site_symmetry_multiplicity
 _atom_site_fract_x
 _atom_site_fract_y
 _atom_site_fract_z
 _atom_site_occupancy
  Sc  Sc0  1  0.24999995  0.01342068  0.30444431  1
  Sc  Sc1  1  0.74999984  0.48657933  0.80444433  1
  Sc  Sc2  1  0.74999984  0.98657933  0.69555575  1
  Sc  Sc3  1  0.24999995  0.51342068  0.19555572  1
  Ge  Ge4  1  0.24999995  0.27538355  0.61256149  1
  Ge  Ge5  1  0.74999984  0.22461645  0.11256146  1
  Ge  Ge6  1  0.74999984  0.72461646  0.38743857  1
  Ge  Ge7  1  0.24999995  0.77538355  0.88743860  1
  Rh  Rh8  1  0.24999995  0.15724347  0.93621965  1
  Rh  Rh9  1  0.74999984  0.34275654  0.43621962  1
  Rh  Rh10  1  0.74999984  0.84275654  0.06378041  1
  Rh  Rh11  1  0.24999995  0.65724347  0.56378043  1
