# generated using pymatgen
data_K5Te3
_symmetry_space_group_name_H-M   'P 1'
_cell_length_a   10.15176954
_cell_length_b   10.15176954
_cell_length_c   10.15176954
_cell_angle_alpha   95.69095792
_cell_angle_beta   95.69095792
_cell_angle_gamma   143.29031092
_symmetry_Int_Tables_number   1
_chemical_formula_structural   K5Te3
_chemical_formula_sum   'K10 Te6'
_cell_volume   593.57527498
_cell_formula_units_Z   2
loop_
 _symmetry_equiv_pos_site_id
 _symmetry_equiv_pos_as_xyz
  1  'x, y, z'
loop_
 _atom_site_type_symbol
 _atom_site_label
 _atom_site_symmetry_multiplicity
 _atom_site_fract_x
 _atom_site_fract_y
 _atom_site_fract_z
 _atom_site_occupancy
  K  K0  1  0.08801785  0.78039822  0.86841607  1
  K  K1  1  0.91198155  0.21960111  0.13158378  1
  K  K2  1  0.21960163  0.08801779  0.30761941  1
  K  K3  1  0.78039777  0.91198155  0.69238043  1
  K  K4  1  0.28042804  0.58795446  0.86838250  1
  K  K5  1  0.71957135  0.41204488  0.13161735  1
  K  K6  1  0.41204539  0.28042798  0.69247337  1
  K  K7  1  0.58795400  0.71957135  0.30752648  1
  K  K8  1  0.24999975  0.74999964  0.49999995  1
  K  K9  1  0.74999964  0.24999969  0.49999989  1
  Te  Te10  1  0.75002028  0.75002028  0.00000000  1
  Te  Te11  1  0.24997860  0.24997860  0.00000000  1
  Te  Te12  1  0.34396340  0.84394980  0.18791432  1
  Te  Te13  1  0.65603599  0.15604953  0.81208553  1
  Te  Te14  1  0.15604959  0.34396386  0.50001345  1
  Te  Te15  1  0.84394980  0.65603548  0.49998640  1
