# generated using pymatgen
data_Na3N
_symmetry_space_group_name_H-M   'P 1'
_cell_length_a   5.54898040
_cell_length_b   6.73421868
_cell_length_c   7.77215671
_cell_angle_alpha   90.00000000
_cell_angle_beta   90.00000000
_cell_angle_gamma   90.00000000
_symmetry_Int_Tables_number   1
_chemical_formula_structural   Na3N
_chemical_formula_sum   'Na12 N4'
_cell_volume   290.43032102
_cell_formula_units_Z   4
loop_
 _symmetry_equiv_pos_site_id
 _symmetry_equiv_pos_as_xyz
  1  'x, y, z'
loop_
 _atom_site_type_symbol
 _atom_site_label
 _atom_site_symmetry_multiplicity
 _atom_site_fract_x
 _atom_site_fract_y
 _atom_site_fract_z
 _atom_site_occupancy
  Na  Na0  1  0.16285144  0.05208426  0.75000032  1
  Na  Na1  1  0.66285140  0.44791584  0.25000011  1
  Na  Na2  1  0.83714849  0.94791593  0.25000011  1
  Na  Na3  1  0.33714853  0.55208436  0.75000032  1
  Na  Na4  1  0.66943813  0.14986882  0.92636256  1
  Na  Na5  1  0.16943817  0.35013128  0.07363786  1
  Na  Na6  1  0.33056180  0.85013138  0.42636235  1
  Na  Na7  1  0.83056176  0.64986891  0.57363807  1
  Na  Na8  1  0.33056180  0.85013138  0.07363786  1
  Na  Na9  1  0.83056176  0.64986891  0.92636256  1
  Na  Na10  1  0.66943813  0.14986882  0.57363807  1
  Na  Na11  1  0.16943817  0.35013128  0.42636235  1
  N  N12  1  0.96647805  0.36147148  0.75000032  1
  N  N13  1  0.46647808  0.13852862  0.25000011  1
  N  N14  1  0.03352188  0.63852871  0.25000011  1
  N  N15  1  0.53352185  0.86147158  0.75000032  1
