# generated using pymatgen
data_Hf3In4
_symmetry_space_group_name_H-M   'P 1'
_cell_length_a   10.27129602
_cell_length_b   10.27129602
_cell_length_c   3.11911251
_cell_angle_alpha   90.00000000
_cell_angle_beta   90.00000000
_cell_angle_gamma   90.00000000
_symmetry_Int_Tables_number   1
_chemical_formula_structural   Hf3In4
_chemical_formula_sum   'Hf6 In8'
_cell_volume   329.06487891
_cell_formula_units_Z   2
loop_
 _symmetry_equiv_pos_site_id
 _symmetry_equiv_pos_as_xyz
  1  'x, y, z'
loop_
 _atom_site_type_symbol
 _atom_site_label
 _atom_site_symmetry_multiplicity
 _atom_site_fract_x
 _atom_site_fract_y
 _atom_site_fract_z
 _atom_site_occupancy
  Hf  Hf0  1  0.00000000  0.50000019  0.00000000  1
  Hf  Hf1  1  0.50000019  0.00000000  0.00000000  1
  Hf  Hf2  1  0.18602750  0.68602769  0.49999960  1
  Hf  Hf3  1  0.81397289  0.31397269  0.49999960  1
  Hf  Hf4  1  0.31397269  0.18602750  0.49999960  1
  Hf  Hf5  1  0.68602769  0.81397289  0.49999960  1
  In  In6  1  0.05184480  0.20673934  0.00000000  1
  In  In7  1  0.94815559  0.79326105  0.00000000  1
  In  In8  1  0.79326105  0.05184480  0.00000000  1
  In  In9  1  0.20673934  0.94815559  0.00000000  1
  In  In10  1  0.44815540  0.70673953  0.00000000  1
  In  In11  1  0.55184499  0.29326085  0.00000000  1
  In  In12  1  0.70673953  0.55184499  0.00000000  1
  In  In13  1  0.29326085  0.44815540  0.00000000  1
