# generated using pymatgen
data_Na2BeIr
_symmetry_space_group_name_H-M   'P 1'
_cell_length_a   3.07517685
_cell_length_b   3.07517685
_cell_length_c   8.30307599
_cell_angle_alpha   90.00000000
_cell_angle_beta   90.00000000
_cell_angle_gamma   90.00000000
_symmetry_Int_Tables_number   1
_chemical_formula_structural   Na2BeIr
_chemical_formula_sum   'Na2 Be1 Ir1'
_cell_volume   78.51980393
_cell_formula_units_Z   1
loop_
 _symmetry_equiv_pos_site_id
 _symmetry_equiv_pos_as_xyz
  1  'x, y, z'
loop_
 _atom_site_type_symbol
 _atom_site_label
 _atom_site_symmetry_multiplicity
 _atom_site_fract_x
 _atom_site_fract_y
 _atom_site_fract_z
 _atom_site_occupancy
  Na  Na0  1  0.00000000  0.00000000  0.92685433  1
  Na  Na1  1  0.50000051  0.50000051  0.31581965  1
  Be  Be2  1  0.00000000  0.00000000  0.59606684  1
  Ir  Ir3  1  0.50000051  0.50000051  0.66126039  1
