# generated using pymatgen
data_Li4HN
_symmetry_space_group_name_H-M   'P 1'
_cell_length_a   5.99455671
_cell_length_b   5.99455671
_cell_length_c   5.99455671
_cell_angle_alpha   132.51479348
_cell_angle_beta   132.51479348
_cell_angle_gamma   69.41717171
_symmetry_Int_Tables_number   1
_chemical_formula_structural   Li4HN
_chemical_formula_sum   'Li8 H2 N2'
_cell_volume   114.82676463
_cell_formula_units_Z   2
loop_
 _symmetry_equiv_pos_site_id
 _symmetry_equiv_pos_as_xyz
  1  'x, y, z'
loop_
 _atom_site_type_symbol
 _atom_site_label
 _atom_site_symmetry_multiplicity
 _atom_site_fract_x
 _atom_site_fract_y
 _atom_site_fract_z
 _atom_site_occupancy
  Li  Li0  1  0.25968565  0.02654340  0.85416176  1
  Li  Li1  1  0.67238208  0.40552424  0.64583855  1
  Li  Li2  1  0.40552417  0.25968572  0.73314236  1
  Li  Li3  1  0.02654346  0.67238201  0.76685794  1
  Li  Li4  1  0.74031469  0.97345694  0.14583844  1
  Li  Li5  1  0.32761826  0.59447610  0.35416165  1
  Li  Li6  1  0.59447617  0.74031462  0.26685784  1
  Li  Li7  1  0.97345688  0.32761833  0.23314226  1
  H  H8  1  0.12500013  0.87500028  0.25000005  1
  H  H9  1  0.87500021  0.12500006  0.75000016  1
  N  N10  1  0.62500023  0.37500018  0.25000005  1
  N  N11  1  0.37500011  0.62500016  0.75000015  1
