# generated using pymatgen
data_BeCoTc2
_symmetry_space_group_name_H-M   'P 1'
_cell_length_a   4.63074762
_cell_length_b   4.63074762
_cell_length_c   4.63074762
_cell_angle_alpha   135.41995260
_cell_angle_beta   135.41995260
_cell_angle_gamma   64.87838385
_symmetry_Int_Tables_number   1
_chemical_formula_structural   BeCoTc2
_chemical_formula_sum   'Be1 Co1 Tc2'
_cell_volume   48.22699226
_cell_formula_units_Z   1
loop_
 _symmetry_equiv_pos_site_id
 _symmetry_equiv_pos_as_xyz
  1  'x, y, z'
loop_
 _atom_site_type_symbol
 _atom_site_label
 _atom_site_symmetry_multiplicity
 _atom_site_fract_x
 _atom_site_fract_y
 _atom_site_fract_z
 _atom_site_occupancy
  Be  Be0  1  0.49999983  0.49999983  0.00000000  1
  Co  Co1  1  0.75000000  0.24999991  0.50000009  1
  Tc  Tc2  1  0.00000000  0.00000000  0.00000000  1
  Tc  Tc3  1  0.24999991  0.75000000  0.50000009  1
