# generated using pymatgen
data_BeTl2Cd
_symmetry_space_group_name_H-M   'P 1'
_cell_length_a   6.08268612
_cell_length_b   6.08268612
_cell_length_c   6.08268612
_cell_angle_alpha   139.00910601
_cell_angle_beta   139.00910601
_cell_angle_gamma   59.36096738
_symmetry_Int_Tables_number   1
_chemical_formula_structural   BeTl2Cd
_chemical_formula_sum   'Be1 Tl2 Cd1'
_cell_volume   95.88089904
_cell_formula_units_Z   1
loop_
 _symmetry_equiv_pos_site_id
 _symmetry_equiv_pos_as_xyz
  1  'x, y, z'
loop_
 _atom_site_type_symbol
 _atom_site_label
 _atom_site_symmetry_multiplicity
 _atom_site_fract_x
 _atom_site_fract_y
 _atom_site_fract_z
 _atom_site_occupancy
  Be  Be0  1  0.50000009  0.50000009  0.00000000  1
  Tl  Tl1  1  0.00000000  0.00000000  0.00000000  1
  Tl  Tl2  1  0.25000004  0.75000032  0.50000028  1
  Cd  Cd3  1  0.75000032  0.25000004  0.50000028  1
