# generated using pymatgen
data_CePIr
_symmetry_space_group_name_H-M   'P 1'
_cell_length_a   7.79902715
_cell_length_b   7.79902715
_cell_length_c   7.79902715
_cell_angle_alpha   150.02674167
_cell_angle_beta   150.02674167
_cell_angle_gamma   42.90215046
_symmetry_Int_Tables_number   1
_chemical_formula_structural   CePIr
_chemical_formula_sum   'Ce2 P2 Ir2'
_cell_volume   118.09750278
_cell_formula_units_Z   2
loop_
 _symmetry_equiv_pos_site_id
 _symmetry_equiv_pos_as_xyz
  1  'x, y, z'
loop_
 _atom_site_type_symbol
 _atom_site_label
 _atom_site_symmetry_multiplicity
 _atom_site_fract_x
 _atom_site_fract_y
 _atom_site_fract_z
 _atom_site_occupancy
  Ce  Ce0  1  -0.00110856  -0.00110856  0.00000000  1
  Ce  Ce1  1  0.74889176  0.24889144  0.50000032  1
  P  P2  1  0.57996317  0.57996317  0.00000000  1
  P  P3  1  0.32996317  0.82996349  0.50000032  1
  Ir  Ir4  1  0.41561540  0.41561540  0.00000000  1
  Ir  Ir5  1  0.16561540  0.66561572  0.50000032  1
