# generated using pymatgen
data_DyRu2
_symmetry_space_group_name_H-M   'P 1'
_cell_length_a   5.24958456
_cell_length_b   5.24958456
_cell_length_c   8.91088323
_cell_angle_alpha   90.00000000
_cell_angle_beta   90.00000000
_cell_angle_gamma   119.99938121
_symmetry_Int_Tables_number   1
_chemical_formula_structural   DyRu2
_chemical_formula_sum   'Dy4 Ru8'
_cell_volume   212.66888926
_cell_formula_units_Z   4
loop_
 _symmetry_equiv_pos_site_id
 _symmetry_equiv_pos_as_xyz
  1  'x, y, z'
loop_
 _atom_site_type_symbol
 _atom_site_label
 _atom_site_symmetry_multiplicity
 _atom_site_fract_x
 _atom_site_fract_y
 _atom_site_fract_z
 _atom_site_occupancy
  Dy  Dy0  1  0.33333433  0.66666688  0.06701965  1
  Dy  Dy1  1  0.66666688  0.33333433  0.56701947  1
  Dy  Dy2  1  0.66666688  0.33333433  0.93297999  1
  Dy  Dy3  1  0.33333433  0.66666688  0.43298017  1
  Ru  Ru4  1  0.00000000  0.00000000  0.00000000  1
  Ru  Ru5  1  0.00000000  0.00000000  0.49999982  1
  Ru  Ru6  1  0.82933403  0.65866500  0.24999991  1
  Ru  Ru7  1  0.34133621  0.17066718  0.24999991  1
  Ru  Ru8  1  0.82933226  0.17066895  0.24999991  1
  Ru  Ru9  1  0.17066718  0.34133621  0.74999973  1
  Ru  Ru10  1  0.65866500  0.82933403  0.74999973  1
  Ru  Ru11  1  0.17066895  0.82933226  0.74999973  1
