# generated using pymatgen
data_Y3Au2
_symmetry_space_group_name_H-M   'P 1'
_cell_length_a   8.11635268
_cell_length_b   8.11635268
_cell_length_c   3.81723869
_cell_angle_alpha   90.00000000
_cell_angle_beta   90.00000000
_cell_angle_gamma   90.00000000
_symmetry_Int_Tables_number   1
_chemical_formula_structural   Y3Au2
_chemical_formula_sum   'Y6 Au4'
_cell_volume   251.46128850
_cell_formula_units_Z   2
loop_
 _symmetry_equiv_pos_site_id
 _symmetry_equiv_pos_as_xyz
  1  'x, y, z'
loop_
 _atom_site_type_symbol
 _atom_site_label
 _atom_site_symmetry_multiplicity
 _atom_site_fract_x
 _atom_site_fract_y
 _atom_site_fract_z
 _atom_site_occupancy
  Y  Y0  1  0.00000000  0.00000000  0.00000000  1
  Y  Y1  1  0.49999984  0.49999984  0.00000000  1
  Y  Y2  1  0.66155741  0.16155757  0.50000017  1
  Y  Y3  1  0.33844226  0.83844210  0.50000017  1
  Y  Y4  1  0.16155757  0.33844226  0.50000017  1
  Y  Y5  1  0.83844210  0.66155741  0.50000017  1
  Au  Au6  1  0.13479213  0.63479197  0.00000000  1
  Au  Au7  1  0.86520754  0.36520770  0.00000000  1
  Au  Au8  1  0.63479197  0.86520754  0.00000000  1
  Au  Au9  1  0.36520770  0.13479213  0.00000000  1
