# generated using pymatgen
data_Ba2Ca2Cu3HgO8
_symmetry_space_group_name_H-M   'P 1'
_cell_length_a   3.88079177
_cell_length_b   3.88079177
_cell_length_c   16.07330701
_cell_angle_alpha   90.00000000
_cell_angle_beta   90.00000000
_cell_angle_gamma   90.00000000
_symmetry_Int_Tables_number   1
_chemical_formula_structural   Ba2Ca2Cu3HgO8
_chemical_formula_sum   'Ba2 Ca2 Cu3 Hg1 O8'
_cell_volume   242.07276022
_cell_formula_units_Z   1
loop_
 _symmetry_equiv_pos_site_id
 _symmetry_equiv_pos_as_xyz
  1  'x, y, z'
loop_
 _atom_site_type_symbol
 _atom_site_label
 _atom_site_symmetry_multiplicity
 _atom_site_fract_x
 _atom_site_fract_y
 _atom_site_fract_z
 _atom_site_occupancy
  Ba  Ba0  1  0.49999977  0.49999977  0.18382577  1
  Ba  Ba1  1  0.49999977  0.49999977  0.81617441  1
  Ca  Ca2  1  0.49999977  0.49999977  0.40122555  1
  Ca  Ca3  1  0.49999977  0.49999977  0.59877463  1
  Cu  Cu4  1  0.00000000  0.00000000  0.50000009  1
  Cu  Cu5  1  0.00000000  0.00000000  0.30984185  1
  Cu  Cu6  1  0.00000000  0.00000000  0.69015833  1
  Hg  Hg7  1  0.00000000  0.00000000  0.00000000  1
  O  O8  1  0.49999977  0.00000000  0.30480481  1
  O  O9  1  0.00000000  0.49999977  0.30480481  1
  O  O10  1  0.49999977  0.00000000  0.69519538  1
  O  O11  1  0.00000000  0.49999977  0.69519538  1
  O  O12  1  0.00000000  0.00000000  0.12539489  1
  O  O13  1  0.00000000  0.00000000  0.87460529  1
  O  O14  1  0.00000000  0.49999977  0.50000009  1
  O  O15  1  0.49999977  0.00000000  0.50000009  1
