# generated using pymatgen
data_BaP2Ru
_symmetry_space_group_name_H-M   'P 1'
_cell_length_a   5.06365912
_cell_length_b   5.06365912
_cell_length_c   3.23862370
_cell_angle_alpha   90.00000000
_cell_angle_beta   90.00000000
_cell_angle_gamma   90.00000000
_symmetry_Int_Tables_number   1
_chemical_formula_structural   BaP2Ru
_chemical_formula_sum   'Ba1 P2 Ru1'
_cell_volume   83.04039637
_cell_formula_units_Z   1
loop_
 _symmetry_equiv_pos_site_id
 _symmetry_equiv_pos_as_xyz
  1  'x, y, z'
loop_
 _atom_site_type_symbol
 _atom_site_label
 _atom_site_symmetry_multiplicity
 _atom_site_fract_x
 _atom_site_fract_y
 _atom_site_fract_z
 _atom_site_occupancy
  Ba  Ba0  1  0.00000000  -0.00000000  0.49999943  1
  P  P1  1  0.50000009  0.00000000  0.00000000  1
  P  P2  1  0.00000000  0.50000009  -0.00000000  1
  Ru  Ru3  1  0.50000009  0.50000009  0.49999943  1
