# generated using pymatgen
data_Nd4Se3O4
_symmetry_space_group_name_H-M   'P 1'
_cell_length_a   6.77964939
_cell_length_b   6.77964939
_cell_length_c   8.50167446
_cell_angle_alpha   90.00000000
_cell_angle_beta   90.00000000
_cell_angle_gamma   145.47181263
_symmetry_Int_Tables_number   1
_chemical_formula_structural   Nd4Se3O4
_chemical_formula_sum   'Nd4 Se3 O4'
_cell_volume   221.49181216
_cell_formula_units_Z   1
loop_
 _symmetry_equiv_pos_site_id
 _symmetry_equiv_pos_as_xyz
  1  'x, y, z'
loop_
 _atom_site_type_symbol
 _atom_site_label
 _atom_site_symmetry_multiplicity
 _atom_site_fract_x
 _atom_site_fract_y
 _atom_site_fract_z
 _atom_site_occupancy
  Nd  Nd0  1  0.00066803  0.99933172  0.00000000  1
  Nd  Nd1  1  0.01677484  0.98322491  0.49999974  1
  Nd  Nd2  1  0.68351490  0.31648486  0.76239960  1
  Nd  Nd3  1  0.68351490  0.31648486  0.23759987  1
  Se  Se4  1  0.35635071  0.64364904  0.65012150  1
  Se  Se5  1  0.35635071  0.64364904  0.34987797  1
  Se  Se6  1  0.31289923  0.68710052  0.00000000  1
  O  O7  1  0.08757996  0.91241979  0.75580546  1
  O  O8  1  0.08757996  0.91241979  0.24419401  1
  O  O9  1  0.58870963  0.41129012  0.00000000  1
  O  O10  1  0.61587460  0.38412515  0.49999974  1
