# generated using pymatgen
data_HoGa2Pd
_symmetry_space_group_name_H-M   'P 1'
_cell_length_a   5.51091977
_cell_length_b   5.51091977
_cell_length_c   6.57557258
_cell_angle_alpha   90.00000000
_cell_angle_beta   90.00000000
_cell_angle_gamma   132.65513040
_symmetry_Int_Tables_number   1
_chemical_formula_structural   HoGa2Pd
_chemical_formula_sum   'Ho2 Ga4 Pd2'
_cell_volume   146.86970359
_cell_formula_units_Z   2
loop_
 _symmetry_equiv_pos_site_id
 _symmetry_equiv_pos_as_xyz
  1  'x, y, z'
loop_
 _atom_site_type_symbol
 _atom_site_label
 _atom_site_symmetry_multiplicity
 _atom_site_fract_x
 _atom_site_fract_y
 _atom_site_fract_z
 _atom_site_occupancy
  Ho  Ho0  1  0.59001858  0.40997962  0.74999971  1
  Ho  Ho1  1  0.40997962  0.59001858  0.24999990  1
  Ga  Ga2  1  0.87378802  0.12621018  0.94762417  1
  Ga  Ga3  1  0.12621018  0.87378802  0.44762436  1
  Ga  Ga4  1  0.87378802  0.12621018  0.55237525  1
  Ga  Ga5  1  0.12621018  0.87378802  0.05237544  1
  Pd  Pd6  1  0.30080736  0.69919085  0.74999971  1
  Pd  Pd7  1  0.69919085  0.30080736  0.24999990  1
