# generated using pymatgen
data_Be2GaFe2
_symmetry_space_group_name_H-M   'P 1'
_cell_length_a   5.30478670
_cell_length_b   5.30478670
_cell_length_c   5.30478670
_cell_angle_alpha   141.72756059
_cell_angle_beta   141.72756059
_cell_angle_gamma   55.23939625
_symmetry_Int_Tables_number   1
_chemical_formula_structural   Be2GaFe2
_chemical_formula_sum   'Be2 Ga1 Fe2'
_cell_volume   56.85613272
_cell_formula_units_Z   1
loop_
 _symmetry_equiv_pos_site_id
 _symmetry_equiv_pos_as_xyz
  1  'x, y, z'
loop_
 _atom_site_type_symbol
 _atom_site_label
 _atom_site_symmetry_multiplicity
 _atom_site_fract_x
 _atom_site_fract_y
 _atom_site_fract_z
 _atom_site_occupancy
  Be  Be0  1  0.60783076  0.60783076  0.00000000  1
  Be  Be1  1  0.39217015  0.39217015  0.00000000  1
  Ga  Ga2  1  0.00000000  0.00000000  0.00000000  1
  Fe  Fe3  1  0.75000033  0.25000023  0.50000010  1
  Fe  Fe4  1  0.25000023  0.75000033  0.50000010  1
