# generated using pymatgen
data_BaFePt2
_symmetry_space_group_name_H-M   'P 1'
_cell_length_a   5.11593165
_cell_length_b   5.11593165
_cell_length_c   5.11593165
_cell_angle_alpha   125.73061299
_cell_angle_beta   125.73061299
_cell_angle_gamma   80.33134836
_symmetry_Int_Tables_number   1
_chemical_formula_structural   BaFePt2
_chemical_formula_sum   'Ba1 Fe1 Pt2'
_cell_volume   85.13746989
_cell_formula_units_Z   1
loop_
 _symmetry_equiv_pos_site_id
 _symmetry_equiv_pos_as_xyz
  1  'x, y, z'
loop_
 _atom_site_type_symbol
 _atom_site_label
 _atom_site_symmetry_multiplicity
 _atom_site_fract_x
 _atom_site_fract_y
 _atom_site_fract_z
 _atom_site_occupancy
  Ba  Ba0  1  0.25000026  0.74999944  0.49999917  1
  Fe  Fe1  1  0.74999944  0.25000026  0.49999917  1
  Pt  Pt2  1  0.00000000  0.00000000  0.00000000  1
  Pt  Pt3  1  0.50000053  0.50000053  0.00000000  1
