# generated using pymatgen
data_Sc2BeCl
_symmetry_space_group_name_H-M   'P 1'
_cell_length_a   3.15156143
_cell_length_b   3.15156143
_cell_length_c   8.78966393
_cell_angle_alpha   90.00000000
_cell_angle_beta   90.00000000
_cell_angle_gamma   90.00000000
_symmetry_Int_Tables_number   1
_chemical_formula_structural   Sc2BeCl
_chemical_formula_sum   'Sc2 Be1 Cl1'
_cell_volume   87.30192566
_cell_formula_units_Z   1
loop_
 _symmetry_equiv_pos_site_id
 _symmetry_equiv_pos_as_xyz
  1  'x, y, z'
loop_
 _atom_site_type_symbol
 _atom_site_label
 _atom_site_symmetry_multiplicity
 _atom_site_fract_x
 _atom_site_fract_y
 _atom_site_fract_z
 _atom_site_occupancy
  Sc  Sc0  1  0.00000000  0.00000000  0.98312428  1
  Sc  Sc1  1  0.49999977  0.49999977  0.26418219  1
  Be  Be2  1  0.00000000  0.00000000  0.44036138  1
  Cl  Cl3  1  0.49999977  0.49999977  0.81233103  1
