# generated using pymatgen
data_LaBeSe2
_symmetry_space_group_name_H-M   'P 1'
_cell_length_a   6.16472822
_cell_length_b   6.16472822
_cell_length_c   6.16472822
_cell_angle_alpha   141.16507932
_cell_angle_beta   141.16507932
_cell_angle_gamma   56.08849016
_symmetry_Int_Tables_number   1
_chemical_formula_structural   LaBeSe2
_chemical_formula_sum   'La1 Be1 Se2'
_cell_volume   91.41282574
_cell_formula_units_Z   1
loop_
 _symmetry_equiv_pos_site_id
 _symmetry_equiv_pos_as_xyz
  1  'x, y, z'
loop_
 _atom_site_type_symbol
 _atom_site_label
 _atom_site_symmetry_multiplicity
 _atom_site_fract_x
 _atom_site_fract_y
 _atom_site_fract_z
 _atom_site_occupancy
  La  La0  1  0.74999900  0.25000021  0.49999878  1
  Be  Be1  1  0.50000042  0.50000042  0.00000000  1
  Se  Se2  1  0.00000000  0.00000000  0.00000000  1
  Se  Se3  1  0.25000021  0.74999900  0.49999878  1
