# generated using pymatgen
data_BeCuHg
_symmetry_space_group_name_H-M   'P 1'
_cell_length_a   2.94694771
_cell_length_b   2.94694771
_cell_length_c   5.99530630
_cell_angle_alpha   90.00000000
_cell_angle_beta   90.00000000
_cell_angle_gamma   120.00001073
_symmetry_Int_Tables_number   1
_chemical_formula_structural   BeCuHg
_chemical_formula_sum   'Be1 Cu1 Hg1'
_cell_volume   45.09068386
_cell_formula_units_Z   1
loop_
 _symmetry_equiv_pos_site_id
 _symmetry_equiv_pos_as_xyz
  1  'x, y, z'
loop_
 _atom_site_type_symbol
 _atom_site_label
 _atom_site_symmetry_multiplicity
 _atom_site_fract_x
 _atom_site_fract_y
 _atom_site_fract_z
 _atom_site_occupancy
  Be  Be0  1  0.00000000  0.00000000  0.96953737  1
  Cu  Cu1  1  0.33333188  0.66666566  0.71169392  1
  Hg  Hg2  1  0.66666566  0.33333188  0.31877094  1
