# generated using pymatgen
data_YBeIr
_symmetry_space_group_name_H-M   'P 1'
_cell_length_a   5.49597963
_cell_length_b   5.49597963
_cell_length_c   5.49597963
_cell_angle_alpha   146.94513521
_cell_angle_beta   146.94513521
_cell_angle_gamma   47.44502536
_symmetry_Int_Tables_number   1
_chemical_formula_structural   YBeIr
_chemical_formula_sum   'Y1 Be1 Ir1'
_cell_volume   49.19740345
_cell_formula_units_Z   1
loop_
 _symmetry_equiv_pos_site_id
 _symmetry_equiv_pos_as_xyz
  1  'x, y, z'
loop_
 _atom_site_type_symbol
 _atom_site_label
 _atom_site_symmetry_multiplicity
 _atom_site_fract_x
 _atom_site_fract_y
 _atom_site_fract_z
 _atom_site_occupancy
  Y  Y0  1  0.33193626  0.33193626  0.00000000  1
  Be  Be1  1  0.04111537  0.04111537  0.00000000  1
  Ir  Ir2  1  0.62694747  0.62694747  0.00000000  1
