# generated using pymatgen
data_BeVFe
_symmetry_space_group_name_H-M   'P 1'
_cell_length_a   5.63630051
_cell_length_b   5.63630051
_cell_length_c   5.63630051
_cell_angle_alpha   154.75139522
_cell_angle_beta   154.75139522
_cell_angle_gamma   36.00837531
_symmetry_Int_Tables_number   1
_chemical_formula_structural   BeVFe
_chemical_formula_sum   'Be1 V1 Fe1'
_cell_volume   32.53632623
_cell_formula_units_Z   1
loop_
 _symmetry_equiv_pos_site_id
 _symmetry_equiv_pos_as_xyz
  1  'x, y, z'
loop_
 _atom_site_type_symbol
 _atom_site_label
 _atom_site_symmetry_multiplicity
 _atom_site_fract_x
 _atom_site_fract_y
 _atom_site_fract_z
 _atom_site_occupancy
  Be  Be0  1  0.99259908  0.99259908  0.00000000  1
  V  V1  1  0.65765815  0.65765815  0.00000000  1
  Fe  Fe2  1  0.34974264  0.34974264  0.00000000  1
