# generated using pymatgen
data_Be2VCr
_symmetry_space_group_name_H-M   'P 1'
_cell_length_a   4.40942172
_cell_length_b   4.40942172
_cell_length_c   4.40942172
_cell_angle_alpha   135.36421522
_cell_angle_beta   135.36421522
_cell_angle_gamma   64.96481516
_symmetry_Int_Tables_number   1
_chemical_formula_structural   Be2VCr
_chemical_formula_sum   'Be2 V1 Cr1'
_cell_volume   41.71606146
_cell_formula_units_Z   1
loop_
 _symmetry_equiv_pos_site_id
 _symmetry_equiv_pos_as_xyz
  1  'x, y, z'
loop_
 _atom_site_type_symbol
 _atom_site_label
 _atom_site_symmetry_multiplicity
 _atom_site_fract_x
 _atom_site_fract_y
 _atom_site_fract_z
 _atom_site_occupancy
  Be  Be0  1  0.00000000  0.00000000  0.00000000  1
  Be  Be1  1  0.25000028  0.75000143  0.50000115  1
  V  V2  1  0.75000143  0.25000028  0.50000115  1
  Cr  Cr3  1  0.50000056  0.50000056  0.00000000  1
