# generated using pymatgen
data_BeCu4Tc
_symmetry_space_group_name_H-M   'P 1'
_cell_length_a   4.72870987
_cell_length_b   4.72870987
_cell_length_c   4.72870987
_cell_angle_alpha   60.00000000
_cell_angle_beta   60.00000000
_cell_angle_gamma   60.00000000
_symmetry_Int_Tables_number   1
_chemical_formula_structural   BeCu4Tc
_chemical_formula_sum   'Be1 Cu4 Tc1'
_cell_volume   74.76752561
_cell_formula_units_Z   1
loop_
 _symmetry_equiv_pos_site_id
 _symmetry_equiv_pos_as_xyz
  1  'x, y, z'
loop_
 _atom_site_type_symbol
 _atom_site_label
 _atom_site_symmetry_multiplicity
 _atom_site_fract_x
 _atom_site_fract_y
 _atom_site_fract_z
 _atom_site_occupancy
  Be  Be0  1  0.00000000  0.00000000  0.00000000  1
  Cu  Cu1  1  0.37481345  0.37481345  0.37481345  1
  Cu  Cu2  1  0.37481345  0.87555798  0.37481345  1
  Cu  Cu3  1  0.37481345  0.37481345  0.87555798  1
  Cu  Cu4  1  0.87555798  0.37481345  0.37481345  1
  Tc  Tc5  1  0.74999937  0.74999937  0.74999937  1
