# generated using pymatgen
data_Ca5Au2
_symmetry_space_group_name_H-M   'P 1'
_cell_length_a   8.96856527
_cell_length_b   8.96856527
_cell_length_c   7.73930386
_cell_angle_alpha   82.84669911
_cell_angle_beta   82.84669911
_cell_angle_gamma   44.70169257
_symmetry_Int_Tables_number   1
_chemical_formula_structural   Ca5Au2
_chemical_formula_sum   'Ca10 Au4'
_cell_volume   433.89772528
_cell_formula_units_Z   2
loop_
 _symmetry_equiv_pos_site_id
 _symmetry_equiv_pos_as_xyz
  1  'x, y, z'
loop_
 _atom_site_type_symbol
 _atom_site_label
 _atom_site_symmetry_multiplicity
 _atom_site_fract_x
 _atom_site_fract_y
 _atom_site_fract_z
 _atom_site_occupancy
  Ca  Ca0  1  0.57997846  0.42002153  0.24999982  1
  Ca  Ca1  1  0.42002138  0.57997831  0.74999982  1
  Ca  Ca2  1  0.02001585  0.79847669  0.42273065  1
  Ca  Ca3  1  0.20152330  0.97998414  0.07726898  1
  Ca  Ca4  1  0.97998399  0.20152316  0.57726899  1
  Ca  Ca5  1  0.79847654  0.02001571  0.92273066  1
  Ca  Ca6  1  0.36078466  0.20119343  0.31569974  1
  Ca  Ca7  1  0.79880656  0.63921533  0.18429989  1
  Ca  Ca8  1  0.63921519  0.79880641  0.68429990  1
  Ca  Ca9  1  0.20119328  0.36078451  0.81569975  1
  Au  Au10  1  0.18239476  0.59832004  0.08062691  1
  Au  Au11  1  0.40167995  0.81760523  0.41937272  1
  Au  Au12  1  0.81760508  0.40167981  0.91937273  1
  Au  Au13  1  0.59831989  0.18239462  0.58062692  1
