# generated using pymatgen
data_HoFeGe2
_symmetry_space_group_name_H-M   'P 1'
_cell_length_a   8.54983801
_cell_length_b   8.54983801
_cell_length_c   4.18391893
_cell_angle_alpha   90.00000000
_cell_angle_beta   90.00000000
_cell_angle_gamma   152.19288542
_symmetry_Int_Tables_number   1
_chemical_formula_structural   HoFeGe2
_chemical_formula_sum   'Ho2 Fe2 Ge4'
_cell_volume   142.67484270
_cell_formula_units_Z   2
loop_
 _symmetry_equiv_pos_site_id
 _symmetry_equiv_pos_as_xyz
  1  'x, y, z'
loop_
 _atom_site_type_symbol
 _atom_site_label
 _atom_site_symmetry_multiplicity
 _atom_site_fract_x
 _atom_site_fract_y
 _atom_site_fract_z
 _atom_site_occupancy
  Ho  Ho0  1  0.89049580  0.10950608  0.75000019  1
  Ho  Ho1  1  0.10950608  0.89049580  0.25000006  1
  Fe  Fe2  1  0.68050015  0.31950173  0.75000019  1
  Fe  Fe3  1  0.31950173  0.68050015  0.25000006  1
  Ge  Ge4  1  0.54487581  0.45512608  0.75000019  1
  Ge  Ge5  1  0.45512608  0.54487581  0.25000006  1
  Ge  Ge6  1  0.25108260  0.74891929  0.75000019  1
  Ge  Ge7  1  0.74891929  0.25108260  0.25000006  1
