# generated using pymatgen
data_FeCo2(CN)6
_symmetry_space_group_name_H-M   'P 1'
_cell_length_a   6.93317589
_cell_length_b   6.93317589
_cell_length_c   6.93317589
_cell_angle_alpha   60.00000000
_cell_angle_beta   60.00000000
_cell_angle_gamma   60.00000000
_symmetry_Int_Tables_number   1
_chemical_formula_structural   FeCo2(CN)6
_chemical_formula_sum   'Fe1 Co2 C6 N6'
_cell_volume   235.65771187
_cell_formula_units_Z   1
loop_
 _symmetry_equiv_pos_site_id
 _symmetry_equiv_pos_as_xyz
  1  'x, y, z'
loop_
 _atom_site_type_symbol
 _atom_site_label
 _atom_site_symmetry_multiplicity
 _atom_site_fract_x
 _atom_site_fract_y
 _atom_site_fract_z
 _atom_site_occupancy
  Fe  Fe0  1  0.00000000  0.00000000  0.00000000  1
  Co  Co1  1  0.50000044  0.50000044  0.50000044  1
  Co  Co2  1  0.75000066  0.75000066  0.75000066  1
  C  C3  1  0.19065683  0.80934405  0.80934405  1
  C  C4  1  0.80934405  0.19065683  0.19065683  1
  C  C5  1  0.19065683  0.19065683  0.80934405  1
  C  C6  1  0.80934405  0.80934405  0.19065683  1
  C  C7  1  0.19065683  0.80934405  0.19065683  1
  C  C8  1  0.80934405  0.19065683  0.80934405  1
  N  N9  1  0.31001325  0.68998763  0.68998763  1
  N  N10  1  0.68998763  0.31001325  0.31001325  1
  N  N11  1  0.31001325  0.31001325  0.68998763  1
  N  N12  1  0.68998763  0.68998763  0.31001325  1
  N  N13  1  0.31001325  0.68998763  0.31001325  1
  N  N14  1  0.68998763  0.31001325  0.68998763  1
