# generated using pymatgen
data_Tb5Sb3
_symmetry_space_group_name_H-M   'P 1'
_cell_length_a   9.01719094
_cell_length_b   9.01717731
_cell_length_c   6.29062100
_cell_angle_alpha   90.00000000
_cell_angle_beta   90.00000000
_cell_angle_gamma   120.00004998
_symmetry_Int_Tables_number   1
_chemical_formula_structural   Tb5Sb3
_chemical_formula_sum   'Tb10 Sb6'
_cell_volume   442.96132444
_cell_formula_units_Z   2
loop_
 _symmetry_equiv_pos_site_id
 _symmetry_equiv_pos_as_xyz
  1  'x, y, z'
loop_
 _atom_site_type_symbol
 _atom_site_label
 _atom_site_symmetry_multiplicity
 _atom_site_fract_x
 _atom_site_fract_y
 _atom_site_fract_z
 _atom_site_occupancy
  Tb  Tb0  1  0.66666843  0.33333623  0.00000000  1
  Tb  Tb1  1  0.33333200  0.66666393  0.49999992  1
  Tb  Tb2  1  0.33333200  0.66666393  0.00000000  1
  Tb  Tb3  1  0.66666843  0.33333623  0.49999992  1
  Tb  Tb4  1  0.00000102  0.75348372  0.24999996  1
  Tb  Tb5  1  0.24651755  0.24651623  0.24999996  1
  Tb  Tb6  1  0.75347877  0.00000021  0.24999996  1
  Tb  Tb7  1  0.99999941  0.24651644  0.74999988  1
  Tb  Tb8  1  0.75348289  0.75348393  0.74999988  1
  Tb  Tb9  1  0.24652196  0.00000007  0.74999988  1
  Sb  Sb10  1  1.00000016  0.38768824  0.24999996  1
  Sb  Sb11  1  0.61231179  0.61231208  0.24999996  1
  Sb  Sb12  1  0.38769111  0.00000011  0.24999996  1
  Sb  Sb13  1  0.00000028  0.61231192  0.74999988  1
  Sb  Sb14  1  0.38768864  0.38768808  0.74999988  1
  Sb  Sb15  1  0.61230962  0.00000017  0.74999988  1
