# generated using pymatgen
data_Cr2CuO4
_symmetry_space_group_name_H-M   'P 1'
_cell_length_a   5.88825175
_cell_length_b   5.88825175
_cell_length_c   5.88825175
_cell_angle_alpha   119.94010711
_cell_angle_beta   119.94010711
_cell_angle_gamma   90.10376886
_symmetry_Int_Tables_number   1
_chemical_formula_structural   Cr2CuO4
_chemical_formula_sum   'Cr4 Cu2 O8'
_cell_volume   144.48951048
_cell_formula_units_Z   2
loop_
 _symmetry_equiv_pos_site_id
 _symmetry_equiv_pos_as_xyz
  1  'x, y, z'
loop_
 _atom_site_type_symbol
 _atom_site_label
 _atom_site_symmetry_multiplicity
 _atom_site_fract_x
 _atom_site_fract_y
 _atom_site_fract_z
 _atom_site_occupancy
  Cr  Cr0  1  0.00000000  0.00000000  0.00000000  1
  Cr  Cr1  1  0.49999988  0.00000000  0.49999988  1
  Cr  Cr2  1  0.49999990  0.00000002  0.00000000  1
  Cr  Cr3  1  0.49999990  0.49999990  0.49999988  1
  Cu  Cu4  1  0.12499996  0.37499990  0.74999981  1
  Cu  Cu5  1  0.87499984  0.62499990  0.24999994  1
  O  O6  1  0.70915198  0.23661845  0.47253353  1
  O  O7  1  0.26408480  0.23661845  0.02746635  1
  O  O8  1  0.73661835  0.76408470  0.52746622  1
  O  O9  1  0.73661831  0.20915208  0.97253340  1
  O  O10  1  0.73591500  0.76338134  0.97253340  1
  O  O11  1  0.29084782  0.76338134  0.52746622  1
  O  O12  1  0.26338144  0.23591510  0.47253353  1
  O  O13  1  0.26338149  0.79084772  0.02746635  1
