# generated using pymatgen
data_TiMn2
_symmetry_space_group_name_H-M   'P 1'
_cell_length_a   4.71430091
_cell_length_b   4.71566056
_cell_length_c   7.78564358
_cell_angle_alpha   90.00000000
_cell_angle_beta   90.00000000
_cell_angle_gamma   119.99046270
_symmetry_Int_Tables_number   1
_chemical_formula_structural   TiMn2
_chemical_formula_sum   'Ti4 Mn8'
_cell_volume   149.90865753
_cell_formula_units_Z   4
loop_
 _symmetry_equiv_pos_site_id
 _symmetry_equiv_pos_as_xyz
  1  'x, y, z'
loop_
 _atom_site_type_symbol
 _atom_site_label
 _atom_site_symmetry_multiplicity
 _atom_site_fract_x
 _atom_site_fract_y
 _atom_site_fract_z
 _atom_site_occupancy
  Ti  Ti0  1  0.66665520  0.33331162  0.43698565  1
  Ti  Ti1  1  0.33334407  0.66668889  0.93698542  1
  Ti  Ti2  1  0.33334407  0.66668889  0.56301389  1
  Ti  Ti3  1  0.66665520  0.33331162  0.06301412  1
  Mn  Mn4  1  0.00000000  0.00000000  0.00000000  1
  Mn  Mn5  1  0.00000000  0.00000000  0.49999977  1
  Mn  Mn6  1  0.65547104  0.82773545  0.24999989  1
  Mn  Mn7  1  0.17226339  0.82773524  0.24999989  1
  Mn  Mn8  1  0.17226876  0.34453790  0.24999989  1
  Mn  Mn9  1  0.34452824  0.17226506  0.74999966  1
  Mn  Mn10  1  0.82773589  0.17226527  0.74999966  1
  Mn  Mn11  1  0.82773052  0.65546261  0.74999966  1
