# generated using pymatgen
data_TaBeOs
_symmetry_space_group_name_H-M   'P 1'
_cell_length_a   2.99171652
_cell_length_b   2.99171652
_cell_length_c   5.42363952
_cell_angle_alpha   90.00000000
_cell_angle_beta   90.00000000
_cell_angle_gamma   120.00002469
_symmetry_Int_Tables_number   1
_chemical_formula_structural   TaBeOs
_chemical_formula_sum   'Ta1 Be1 Os1'
_cell_volume   42.03995274
_cell_formula_units_Z   1
loop_
 _symmetry_equiv_pos_site_id
 _symmetry_equiv_pos_as_xyz
  1  'x, y, z'
loop_
 _atom_site_type_symbol
 _atom_site_label
 _atom_site_symmetry_multiplicity
 _atom_site_fract_x
 _atom_site_fract_y
 _atom_site_fract_z
 _atom_site_occupancy
  Ta  Ta0  1  0.33333395  0.66666759  0.68682543  1
  Be  Be1  1  0.00000000  0.00000000  0.01913629  1
  Os  Os2  1  0.66666759  0.33333395  0.29403837  1
