# generated using pymatgen
data_Ba(GaP)2
_symmetry_space_group_name_H-M   'P 1'
_cell_length_a   9.79177707
_cell_length_b   7.39360427
_cell_length_c   7.48393263
_cell_angle_alpha   64.50971302
_cell_angle_beta   90.00000000
_cell_angle_gamma   90.00000000
_symmetry_Int_Tables_number   1
_chemical_formula_structural   Ba(GaP)2
_chemical_formula_sum   'Ba4 Ga8 P8'
_cell_volume   489.06991245
_cell_formula_units_Z   4
loop_
 _symmetry_equiv_pos_site_id
 _symmetry_equiv_pos_as_xyz
  1  'x, y, z'
loop_
 _atom_site_type_symbol
 _atom_site_label
 _atom_site_symmetry_multiplicity
 _atom_site_fract_x
 _atom_site_fract_y
 _atom_site_fract_z
 _atom_site_occupancy
  Ba  Ba0  1  0.39621452  0.58118826  0.22406293  1
  Ba  Ba1  1  0.89621467  0.41881147  0.27593762  1
  Ba  Ba2  1  0.60378578  0.41881135  0.77593797  1
  Ba  Ba3  1  0.10378563  0.58118814  0.72406328  1
  Ga  Ga4  1  0.48673248  0.93823784  0.73923659  1
  Ga  Ga5  1  0.98673263  0.06176165  0.76076466  1
  Ga  Ga6  1  0.01326767  0.93823796  0.23923624  1
  Ga  Ga7  1  0.51326782  0.06176177  0.26076431  1
  Ga  Ga8  1  0.28801126  0.05873627  0.87187193  1
  Ga  Ga9  1  0.21198889  0.05873639  0.37187158  1
  Ga  Ga10  1  0.71198904  0.94126334  0.12812897  1
  Ga  Ga11  1  0.78801141  0.94126322  0.62812932  1
  P  P12  1  0.67819558  0.73786043  0.94760278  1
  P  P13  1  0.11106953  0.79315257  0.03000296  1
  P  P14  1  0.61106968  0.20684716  0.46999759  1
  P  P15  1  0.88893076  0.20684704  0.96999794  1
  P  P16  1  0.38893061  0.79315245  0.53000331  1
  P  P17  1  0.32180472  0.26213918  0.05239812  1
  P  P18  1  0.82180487  0.73786055  0.44760243  1
  P  P19  1  0.17819543  0.26213906  0.55239847  1
