# generated using pymatgen
data_ErNiSn
_symmetry_space_group_name_H-M   'P 1'
_cell_length_a   4.43536660
_cell_length_b   7.03770235
_cell_length_c   7.62181691
_cell_angle_alpha   90.00000000
_cell_angle_beta   90.00000000
_cell_angle_gamma   90.00000000
_symmetry_Int_Tables_number   1
_chemical_formula_structural   ErNiSn
_chemical_formula_sum   'Er4 Ni4 Sn4'
_cell_volume   237.91341406
_cell_formula_units_Z   4
loop_
 _symmetry_equiv_pos_site_id
 _symmetry_equiv_pos_as_xyz
  1  'x, y, z'
loop_
 _atom_site_type_symbol
 _atom_site_label
 _atom_site_symmetry_multiplicity
 _atom_site_fract_x
 _atom_site_fract_y
 _atom_site_fract_z
 _atom_site_occupancy
  Er  Er0  1  0.25000019  0.48653723  0.70054443  1
  Er  Er1  1  0.75000058  0.01346260  0.20054423  1
  Er  Er2  1  0.75000058  0.51346243  0.29945597  1
  Er  Er3  1  0.25000019  0.98653707  0.79945618  1
  Ni  Ni4  1  0.25000019  0.20514656  0.41457822  1
  Ni  Ni5  1  0.75000058  0.29485327  0.91457842  1
  Ni  Ni6  1  0.75000058  0.79485311  0.58542219  1
  Ni  Ni7  1  0.25000019  0.70514639  0.08542198  1
  Sn  Sn8  1  0.25000019  0.81108411  0.41326934  1
  Sn  Sn9  1  0.75000058  0.68891539  0.91326954  1
  Sn  Sn10  1  0.75000058  0.18891556  0.58673107  1
  Sn  Sn11  1  0.25000019  0.31108427  0.08673087  1
