# generated using pymatgen
data_TaAsOs2
_symmetry_space_group_name_H-M   'P 1'
_cell_length_a   4.48167550
_cell_length_b   4.48167550
_cell_length_c   4.48167550
_cell_angle_alpha   60.00000000
_cell_angle_beta   60.00000000
_cell_angle_gamma   60.00000000
_symmetry_Int_Tables_number   1
_chemical_formula_structural   TaAsOs2
_chemical_formula_sum   'Ta1 As1 Os2'
_cell_volume   63.65114568
_cell_formula_units_Z   1
loop_
 _symmetry_equiv_pos_site_id
 _symmetry_equiv_pos_as_xyz
  1  'x, y, z'
loop_
 _atom_site_type_symbol
 _atom_site_label
 _atom_site_symmetry_multiplicity
 _atom_site_fract_x
 _atom_site_fract_y
 _atom_site_fract_z
 _atom_site_occupancy
  Ta  Ta0  1  0.24999975  0.24999975  0.24999975  1
  As  As1  1  0.49999951  0.49999951  0.49999951  1
  Os  Os2  1  0.00000000  0.00000000  0.00000000  1
  Os  Os3  1  0.74999926  0.74999926  0.74999926  1
