# generated using pymatgen
data_Be2MoPt
_symmetry_space_group_name_H-M   'P 1'
_cell_length_a   2.76642599
_cell_length_b   2.76642599
_cell_length_c   6.18164406
_cell_angle_alpha   90.00000000
_cell_angle_beta   90.00000000
_cell_angle_gamma   90.00000000
_symmetry_Int_Tables_number   1
_chemical_formula_structural   Be2MoPt
_chemical_formula_sum   'Be2 Mo1 Pt1'
_cell_volume   47.30881904
_cell_formula_units_Z   1
loop_
 _symmetry_equiv_pos_site_id
 _symmetry_equiv_pos_as_xyz
  1  'x, y, z'
loop_
 _atom_site_type_symbol
 _atom_site_label
 _atom_site_symmetry_multiplicity
 _atom_site_fract_x
 _atom_site_fract_y
 _atom_site_fract_z
 _atom_site_occupancy
  Be  Be0  1  0.00000000  0.00000000  0.72604961  1
  Be  Be1  1  0.00000000  0.00000000  0.27394973  1
  Mo  Mo2  1  0.50000072  0.50000072  0.00000000  1
  Pt  Pt3  1  0.50000072  0.50000072  0.49999967  1
