# generated using pymatgen
data_Be2ZnHg
_symmetry_space_group_name_H-M   'P 1'
_cell_length_a   3.27928810
_cell_length_b   3.27928810
_cell_length_c   5.13221270
_cell_angle_alpha   90.00000000
_cell_angle_beta   90.00000000
_cell_angle_gamma   90.00000000
_symmetry_Int_Tables_number   1
_chemical_formula_structural   Be2ZnHg
_chemical_formula_sum   'Be2 Zn1 Hg1'
_cell_volume   55.19043203
_cell_formula_units_Z   1
loop_
 _symmetry_equiv_pos_site_id
 _symmetry_equiv_pos_as_xyz
  1  'x, y, z'
loop_
 _atom_site_type_symbol
 _atom_site_label
 _atom_site_symmetry_multiplicity
 _atom_site_fract_x
 _atom_site_fract_y
 _atom_site_fract_z
 _atom_site_occupancy
  Be  Be0  1  0.00000000  0.00000000  0.99779277  1
  Be  Be1  1  0.50000029  0.50000029  0.23508004  1
  Zn  Zn2  1  0.50000029  0.50000029  0.79576769  1
  Hg  Hg3  1  0.00000000  0.00000000  0.47135918  1
