# generated using pymatgen
data_La2NiO4
_symmetry_space_group_name_H-M   'P 1'
_cell_length_a   3.78302877
_cell_length_b   3.78302877
_cell_length_c   7.04670885
_cell_angle_alpha   105.57065946
_cell_angle_beta   105.57065946
_cell_angle_gamma   89.99971417
_symmetry_Int_Tables_number   1
_chemical_formula_structural   La2NiO4
_chemical_formula_sum   'La2 Ni1 O4'
_cell_volume   93.29876204
_cell_formula_units_Z   1
loop_
 _symmetry_equiv_pos_site_id
 _symmetry_equiv_pos_as_xyz
  1  'x, y, z'
loop_
 _atom_site_type_symbol
 _atom_site_label
 _atom_site_symmetry_multiplicity
 _atom_site_fract_x
 _atom_site_fract_y
 _atom_site_fract_z
 _atom_site_occupancy
  La  La0  1  0.36263396  0.36263396  0.72526793  1
  La  La1  1  0.63736533  0.63736533  0.27473140  1
  Ni  Ni2  1  0.00000000  0.00000000  0.00000000  1
  O  O3  1  0.18167118  0.18167118  0.36334236  1
  O  O4  1  0.81832812  0.81832812  0.63665697  1
  O  O5  1  -0.00000031  0.49999994  0.00000000  1
  O  O6  1  0.49999994  -0.00000031  0.00000000  1
