# generated using pymatgen
data_Be2VPt
_symmetry_space_group_name_H-M   'P 1'
_cell_length_a   2.73985250
_cell_length_b   2.73985250
_cell_length_c   6.05848700
_cell_angle_alpha   90.00000000
_cell_angle_beta   90.00000000
_cell_angle_gamma   90.00000000
_symmetry_Int_Tables_number   1
_chemical_formula_structural   Be2VPt
_chemical_formula_sum   'Be2 V1 Pt1'
_cell_volume   45.47980010
_cell_formula_units_Z   1
loop_
 _symmetry_equiv_pos_site_id
 _symmetry_equiv_pos_as_xyz
  1  'x, y, z'
loop_
 _atom_site_type_symbol
 _atom_site_label
 _atom_site_symmetry_multiplicity
 _atom_site_fract_x
 _atom_site_fract_y
 _atom_site_fract_z
 _atom_site_occupancy
  Be  Be0  1  0.00000000  0.00000000  0.76592846  1
  Be  Be1  1  0.00000000  0.00000000  0.23407203  1
  V  V2  1  0.49999954  0.49999954  0.50000025  1
  Pt  Pt3  1  0.49999954  0.49999954  0.00000000  1
