# generated using pymatgen
data_BeIn2Cl
_symmetry_space_group_name_H-M   'P 1'
_cell_length_a   6.52389537
_cell_length_b   6.52389537
_cell_length_c   6.52389537
_cell_angle_alpha   143.02145304
_cell_angle_beta   143.02145304
_cell_angle_gamma   53.29310857
_symmetry_Int_Tables_number   1
_chemical_formula_structural   BeIn2Cl
_chemical_formula_sum   'Be1 In2 Cl1'
_cell_volume   99.83509871
_cell_formula_units_Z   1
loop_
 _symmetry_equiv_pos_site_id
 _symmetry_equiv_pos_as_xyz
  1  'x, y, z'
loop_
 _atom_site_type_symbol
 _atom_site_label
 _atom_site_symmetry_multiplicity
 _atom_site_fract_x
 _atom_site_fract_y
 _atom_site_fract_z
 _atom_site_occupancy
  Be  Be0  1  0.49999972  0.49999972  0.00000000  1
  In  In1  1  0.00000000  0.00000000  0.00000000  1
  In  In2  1  0.24999986  0.74999887  0.49999901  1
  Cl  Cl3  1  0.74999887  0.24999986  0.49999901  1
