# generated using pymatgen
data_La(GePt)2
_symmetry_space_group_name_H-M   'P 1'
_cell_length_a   4.45859346
_cell_length_b   4.45859346
_cell_length_c   10.01389611
_cell_angle_alpha   90.00000000
_cell_angle_beta   90.00000000
_cell_angle_gamma   90.00000000
_symmetry_Int_Tables_number   1
_chemical_formula_structural   La(GePt)2
_chemical_formula_sum   'La2 Ge4 Pt4'
_cell_volume   199.06679788
_cell_formula_units_Z   2
loop_
 _symmetry_equiv_pos_site_id
 _symmetry_equiv_pos_as_xyz
  1  'x, y, z'
loop_
 _atom_site_type_symbol
 _atom_site_label
 _atom_site_symmetry_multiplicity
 _atom_site_fract_x
 _atom_site_fract_y
 _atom_site_fract_z
 _atom_site_occupancy
  La  La0  1  0.24999981  0.24999981  0.74685215  1
  La  La1  1  0.74999942  0.74999942  0.25314824  1
  Ge  Ge2  1  0.24999981  0.74999942  0.50000019  1
  Ge  Ge3  1  0.74999942  0.24999981  0.50000019  1
  Ge  Ge4  1  0.24999981  0.24999981  0.12760351  1
  Ge  Ge5  1  0.74999942  0.74999942  0.87239688  1
  Pt  Pt6  1  0.24999981  0.74999942  0.00000000  1
  Pt  Pt7  1  0.74999942  0.24999981  0.00000000  1
  Pt  Pt8  1  0.24999981  0.24999981  0.37655142  1
  Pt  Pt9  1  0.74999942  0.74999942  0.62344897  1
