# generated using pymatgen
data_KTl
_symmetry_space_group_name_H-M   'P 1'
_cell_length_a   5.46485068
_cell_length_b   5.46485263
_cell_length_c   11.92701391
_cell_angle_alpha   90.00000000
_cell_angle_beta   90.00000000
_cell_angle_gamma   119.99998816
_symmetry_Int_Tables_number   1
_chemical_formula_structural   KTl
_chemical_formula_sum   'K4 Tl4'
_cell_volume   308.47442540
_cell_formula_units_Z   4
loop_
 _symmetry_equiv_pos_site_id
 _symmetry_equiv_pos_as_xyz
  1  'x, y, z'
loop_
 _atom_site_type_symbol
 _atom_site_label
 _atom_site_symmetry_multiplicity
 _atom_site_fract_x
 _atom_site_fract_y
 _atom_site_fract_z
 _atom_site_occupancy
  K  K0  1  0.66666956  0.33333822  0.08618953  1
  K  K1  1  0.33333191  0.66666301  0.58618936  1
  K  K2  1  0.33333191  0.66666301  0.91381014  1
  K  K3  1  0.66666956  0.33333822  0.41381031  1
  Tl  Tl4  1  0.00000497  0.00000995  0.24999992  1
  Tl  Tl5  1  -0.00000497  -0.00000995  0.74999975  1
  Tl  Tl6  1  0.66666241  0.33332392  0.74999975  1
  Tl  Tl7  1  0.33333906  0.66667731  0.24999992  1
