# generated using pymatgen
data_TaBeTl
_symmetry_space_group_name_H-M   'P 1'
_cell_length_a   3.01802212
_cell_length_b   3.01802212
_cell_length_c   6.90031108
_cell_angle_alpha   90.00000000
_cell_angle_beta   90.00000000
_cell_angle_gamma   119.99999433
_symmetry_Int_Tables_number   1
_chemical_formula_structural   TaBeTl
_chemical_formula_sum   'Ta1 Be1 Tl1'
_cell_volume   54.43073068
_cell_formula_units_Z   1
loop_
 _symmetry_equiv_pos_site_id
 _symmetry_equiv_pos_as_xyz
  1  'x, y, z'
loop_
 _atom_site_type_symbol
 _atom_site_label
 _atom_site_symmetry_multiplicity
 _atom_site_fract_x
 _atom_site_fract_y
 _atom_site_fract_z
 _atom_site_occupancy
  Ta  Ta0  1  0.33333284  0.66666637  0.69725621  1
  Be  Be1  1  0.00000000  0.00000000  0.98717770  1
  Tl  Tl2  1  0.66666637  0.33333284  0.31556578  1
