# generated using pymatgen
data_SrTaBe
_symmetry_space_group_name_H-M   'P 1'
_cell_length_a   6.96177654
_cell_length_b   6.96177654
_cell_length_c   6.96177654
_cell_angle_alpha   154.88085058
_cell_angle_beta   154.88085058
_cell_angle_gamma   35.82055179
_symmetry_Int_Tables_number   1
_chemical_formula_structural   SrTaBe
_chemical_formula_sum   'Sr1 Ta1 Be1'
_cell_volume   60.72733739
_cell_formula_units_Z   1
loop_
 _symmetry_equiv_pos_site_id
 _symmetry_equiv_pos_as_xyz
  1  'x, y, z'
loop_
 _atom_site_type_symbol
 _atom_site_label
 _atom_site_symmetry_multiplicity
 _atom_site_fract_x
 _atom_site_fract_y
 _atom_site_fract_z
 _atom_site_occupancy
  Sr  Sr0  1  0.34556386  0.34556386  0.00000000  1
  Ta  Ta1  1  0.63024534  0.63024534  0.00000000  1
  Be  Be2  1  0.02419024  0.02419024  0.00000000  1
