# generated using pymatgen
data_SbPd2
_symmetry_space_group_name_H-M   'P 1'
_cell_length_a   9.04148664
_cell_length_b   9.04148664
_cell_length_c   7.02431290
_cell_angle_alpha   90.00000000
_cell_angle_beta   90.00000000
_cell_angle_gamma   157.83101548
_symmetry_Int_Tables_number   1
_chemical_formula_structural   SbPd2
_chemical_formula_sum   'Sb4 Pd8'
_cell_volume   216.67851579
_cell_formula_units_Z   4
loop_
 _symmetry_equiv_pos_site_id
 _symmetry_equiv_pos_as_xyz
  1  'x, y, z'
loop_
 _atom_site_type_symbol
 _atom_site_label
 _atom_site_symmetry_multiplicity
 _atom_site_fract_x
 _atom_site_fract_y
 _atom_site_fract_z
 _atom_site_occupancy
  Sb  Sb0  1  0.55711811  0.44287998  0.19739198  1
  Sb  Sb1  1  0.44287998  0.55711811  0.69739178  1
  Sb  Sb2  1  0.20514058  0.79485750  0.72712443  1
  Sb  Sb3  1  0.79485750  0.20514058  0.22712463  1
  Pd  Pd4  1  0.96109632  0.03890176  0.00511602  1
  Pd  Pd5  1  0.03890176  0.96109632  0.50511581  1
  Pd  Pd6  1  0.17505714  0.82494095  0.10605897  1
  Pd  Pd7  1  0.82494095  0.17505714  0.60605876  1
  Pd  Pd8  1  0.33016174  0.66983634  0.95245108  1
  Pd  Pd9  1  0.66983634  0.33016174  0.45245129  1
  Pd  Pd10  1  0.58660732  0.41339077  0.82615636  1
  Pd  Pd11  1  0.41339077  0.58660732  0.32615656  1
