# generated using pymatgen
data_CaBeTl2
_symmetry_space_group_name_H-M   'P 1'
_cell_length_a   5.71741366
_cell_length_b   5.71741366
_cell_length_c   5.71741366
_cell_angle_alpha   133.27460349
_cell_angle_beta   133.27460349
_cell_angle_gamma   68.22322772
_symmetry_Int_Tables_number   1
_chemical_formula_structural   CaBeTl2
_chemical_formula_sum   'Ca1 Be1 Tl2'
_cell_volume   97.33248159
_cell_formula_units_Z   1
loop_
 _symmetry_equiv_pos_site_id
 _symmetry_equiv_pos_as_xyz
  1  'x, y, z'
loop_
 _atom_site_type_symbol
 _atom_site_label
 _atom_site_symmetry_multiplicity
 _atom_site_fract_x
 _atom_site_fract_y
 _atom_site_fract_z
 _atom_site_occupancy
  Ca  Ca0  1  0.74999933  0.24999981  0.49999952  1
  Be  Be1  1  0.49999962  0.49999962  0.00000000  1
  Tl  Tl2  1  0.00000000  0.00000000  0.00000000  1
  Tl  Tl3  1  0.24999981  0.74999933  0.49999952  1
