# generated using pymatgen
data_Fe2N
_symmetry_space_group_name_H-M   'P 1'
_cell_length_a   4.32844287
_cell_length_b   4.72270458
_cell_length_c   5.43229552
_cell_angle_alpha   90.00000000
_cell_angle_beta   90.00000000
_cell_angle_gamma   90.00000000
_symmetry_Int_Tables_number   1
_chemical_formula_structural   Fe2N
_chemical_formula_sum   'Fe8 N4'
_cell_volume   111.04675111
_cell_formula_units_Z   4
loop_
 _symmetry_equiv_pos_site_id
 _symmetry_equiv_pos_as_xyz
  1  'x, y, z'
loop_
 _atom_site_type_symbol
 _atom_site_label
 _atom_site_symmetry_multiplicity
 _atom_site_fract_x
 _atom_site_fract_y
 _atom_site_fract_z
 _atom_site_occupancy
  Fe  Fe0  1  -0.00084283  -0.00132222  0.99905576  1
  Fe  Fe1  1  0.00084283  -0.00132222  0.49905535  1
  Fe  Fe2  1  0.00084283  0.49867730  0.25094527  1
  Fe  Fe3  1  -0.00084283  0.49867730  0.75094568  1
  Fe  Fe4  1  0.50083365  0.66798804  -0.00095122  1
  Fe  Fe5  1  0.49916568  0.66798804  0.49904919  1
  Fe  Fe6  1  0.49916568  0.16798853  0.25095143  1
  Fe  Fe7  1  0.50083365  0.16798853  0.75095184  1
  N  N8  1  0.24999102  0.83333272  0.23879506  1
  N  N9  1  0.24999102  0.33333320  0.51120556  1
  N  N10  1  0.75000832  0.83333272  0.73879547  1
  N  N11  1  0.75000832  0.33333320  0.01120515  1
