# generated using pymatgen
data_Zr6Al16Co7
_symmetry_space_group_name_H-M   'P 1'
_cell_length_a   8.52914145
_cell_length_b   8.52914145
_cell_length_c   8.52914145
_cell_angle_alpha   60.00000000
_cell_angle_beta   60.00000000
_cell_angle_gamma   60.00000000
_symmetry_Int_Tables_number   1
_chemical_formula_structural   Zr6Al16Co7
_chemical_formula_sum   'Zr6 Al16 Co7'
_cell_volume   438.73365764
_cell_formula_units_Z   1
loop_
 _symmetry_equiv_pos_site_id
 _symmetry_equiv_pos_as_xyz
  1  'x, y, z'
loop_
 _atom_site_type_symbol
 _atom_site_label
 _atom_site_symmetry_multiplicity
 _atom_site_fract_x
 _atom_site_fract_y
 _atom_site_fract_z
 _atom_site_occupancy
  Zr  Zr0  1  0.69367853  0.30632085  0.69367853  1
  Zr  Zr1  1  0.69367853  0.30632085  0.30632085  1
  Zr  Zr2  1  0.30632085  0.69367853  0.69367853  1
  Zr  Zr3  1  0.30632085  0.30632085  0.69367853  1
  Zr  Zr4  1  0.69367853  0.69367853  0.30632085  1
  Zr  Zr5  1  0.30632085  0.69367853  0.30632085  1
  Al  Al6  1  0.00566052  0.66477941  0.66477941  1
  Al  Al7  1  0.66477941  0.00566052  0.66477941  1
  Al  Al8  1  0.66477941  0.66477941  0.66477941  1
  Al  Al9  1  0.99433886  0.33521997  0.33521997  1
  Al  Al10  1  0.11836392  0.64490662  0.11836392  1
  Al  Al11  1  0.33521997  0.33521997  0.33521997  1
  Al  Al12  1  0.11836392  0.11836392  0.11836392  1
  Al  Al13  1  0.11836392  0.11836392  0.64490662  1
  Al  Al14  1  0.64490662  0.11836392  0.11836392  1
  Al  Al15  1  0.88163546  0.88163546  0.88163546  1
  Al  Al16  1  0.33521997  0.33521997  0.99433886  1
  Al  Al17  1  0.66477941  0.66477941  0.00566052  1
  Al  Al18  1  0.88163546  0.35509276  0.88163546  1
  Al  Al19  1  0.88163546  0.88163546  0.35509276  1
  Al  Al20  1  0.35509276  0.88163546  0.88163546  1
  Al  Al21  1  0.33521997  0.99433886  0.33521997  1
  Co  Co22  1  0.00000000  0.00000000  0.49999969  1
  Co  Co23  1  0.00000000  0.00000000  0.00000000  1
  Co  Co24  1  0.49999969  0.00000000  0.00000000  1
  Co  Co25  1  0.00000000  0.49999969  -0.00000000  1
  Co  Co26  1  0.49999969  0.00000000  0.49999969  1
  Co  Co27  1  0.49999969  0.49999969  0.00000000  1
  Co  Co28  1  0.00000000  0.49999969  0.49999969  1
