# generated using pymatgen
data_MnBePd2
_symmetry_space_group_name_H-M   'P 1'
_cell_length_a   4.81142661
_cell_length_b   4.81142661
_cell_length_c   4.81142661
_cell_angle_alpha   135.56158910
_cell_angle_beta   135.56158910
_cell_angle_gamma   64.65885848
_symmetry_Int_Tables_number   1
_chemical_formula_structural   MnBePd2
_chemical_formula_sum   'Mn1 Be1 Pd2'
_cell_volume   53.83472778
_cell_formula_units_Z   1
loop_
 _symmetry_equiv_pos_site_id
 _symmetry_equiv_pos_as_xyz
  1  'x, y, z'
loop_
 _atom_site_type_symbol
 _atom_site_label
 _atom_site_symmetry_multiplicity
 _atom_site_fract_x
 _atom_site_fract_y
 _atom_site_fract_z
 _atom_site_occupancy
  Mn  Mn0  1  0.75000075  0.24999974  0.50000101  1
  Be  Be1  1  0.49999949  0.49999949  0.00000000  1
  Pd  Pd2  1  0.00000000  0.00000000  0.00000000  1
  Pd  Pd3  1  0.24999974  0.75000075  0.50000101  1
