# generated using pymatgen
data_Be2TcCl
_symmetry_space_group_name_H-M   'P 1'
_cell_length_a   3.07582969
_cell_length_b   3.07582969
_cell_length_c   5.59235328
_cell_angle_alpha   90.00000000
_cell_angle_beta   90.00000000
_cell_angle_gamma   90.00000000
_symmetry_Int_Tables_number   1
_chemical_formula_structural   Be2TcCl
_chemical_formula_sum   'Be2 Tc1 Cl1'
_cell_volume   52.90773487
_cell_formula_units_Z   1
loop_
 _symmetry_equiv_pos_site_id
 _symmetry_equiv_pos_as_xyz
  1  'x, y, z'
loop_
 _atom_site_type_symbol
 _atom_site_label
 _atom_site_symmetry_multiplicity
 _atom_site_fract_x
 _atom_site_fract_y
 _atom_site_fract_z
 _atom_site_occupancy
  Be  Be0  1  0.00000000  0.00000000  0.68000490  1
  Be  Be1  1  0.00000000  0.00000000  0.31999451  1
  Tc  Tc2  1  0.50000005  0.50000005  0.49999971  1
  Cl  Cl3  1  0.50000005  0.50000005  0.00000000  1
