# generated using pymatgen
data_Dy3Ir
_symmetry_space_group_name_H-M   'P 1'
_cell_length_a   6.33856107
_cell_length_b   7.17154441
_cell_length_c   9.23367686
_cell_angle_alpha   90.00000000
_cell_angle_beta   90.00000000
_cell_angle_gamma   90.00000000
_symmetry_Int_Tables_number   1
_chemical_formula_structural   Dy3Ir
_chemical_formula_sum   'Dy12 Ir4'
_cell_volume   419.73776238
_cell_formula_units_Z   4
loop_
 _symmetry_equiv_pos_site_id
 _symmetry_equiv_pos_as_xyz
  1  'x, y, z'
loop_
 _atom_site_type_symbol
 _atom_site_label
 _atom_site_symmetry_multiplicity
 _atom_site_fract_x
 _atom_site_fract_y
 _atom_site_fract_z
 _atom_site_occupancy
  Dy  Dy0  1  0.82775997  0.17839270  0.93858946  1
  Dy  Dy1  1  0.32776005  0.32160699  0.06141088  1
  Dy  Dy2  1  0.17223986  0.82160668  0.43858929  1
  Dy  Dy3  1  0.67223978  0.67839240  0.56141105  1
  Dy  Dy4  1  0.17223986  0.82160668  0.06141088  1
  Dy  Dy5  1  0.67223978  0.67839240  0.93858946  1
  Dy  Dy6  1  0.82775997  0.17839270  0.56141105  1
  Dy  Dy7  1  0.32776005  0.32160699  0.43858929  1
  Dy  Dy8  1  0.36913443  0.03243964  0.75000026  1
  Dy  Dy9  1  0.86913435  0.46756005  0.25000009  1
  Dy  Dy10  1  0.63086540  0.96755974  0.25000009  1
  Dy  Dy11  1  0.13086549  0.53243933  0.75000026  1
  Ir  Ir12  1  0.54868561  0.38383703  0.75000026  1
  Ir  Ir13  1  0.04868569  0.11616267  0.25000009  1
  Ir  Ir14  1  0.45131423  0.61616236  0.25000009  1
  Ir  Ir15  1  0.95131414  0.88383672  0.75000026  1
