# generated using pymatgen
data_PrAl3
_symmetry_space_group_name_H-M   'P 1'
_cell_length_a   6.58871100
_cell_length_b   6.58864877
_cell_length_c   4.60775394
_cell_angle_alpha   90.00000000
_cell_angle_beta   90.00000000
_cell_angle_gamma   119.99968757
_symmetry_Int_Tables_number   1
_chemical_formula_structural   PrAl3
_chemical_formula_sum   'Pr2 Al6'
_cell_volume   173.22800055
_cell_formula_units_Z   2
loop_
 _symmetry_equiv_pos_site_id
 _symmetry_equiv_pos_as_xyz
  1  'x, y, z'
loop_
 _atom_site_type_symbol
 _atom_site_label
 _atom_site_symmetry_multiplicity
 _atom_site_fract_x
 _atom_site_fract_y
 _atom_site_fract_z
 _atom_site_occupancy
  Pr  Pr0  1  0.33335413  0.66667731  0.24999979  1
  Pr  Pr1  1  0.66664520  0.33332306  0.74999936  1
  Al  Al2  1  0.86011758  0.13988078  0.24999979  1
  Al  Al3  1  0.86011705  0.72023771  0.24999979  1
  Al  Al4  1  0.27972858  0.13986448  0.24999979  1
  Al  Al5  1  0.13988175  0.86011958  0.74999936  1
  Al  Al6  1  0.13988228  0.27976266  0.74999936  1
  Al  Al7  1  0.72027074  0.86013588  0.74999936  1
