# generated using pymatgen
data_Ba4GaHg
_symmetry_space_group_name_H-M   'P 1'
_cell_length_a   7.08735468
_cell_length_b   7.08735468
_cell_length_c   7.08735468
_cell_angle_alpha   60.00000000
_cell_angle_beta   60.00000000
_cell_angle_gamma   60.00000000
_symmetry_Int_Tables_number   1
_chemical_formula_structural   Ba4GaHg
_chemical_formula_sum   'Ba4 Ga1 Hg1'
_cell_volume   251.73146487
_cell_formula_units_Z   1
loop_
 _symmetry_equiv_pos_site_id
 _symmetry_equiv_pos_as_xyz
  1  'x, y, z'
loop_
 _atom_site_type_symbol
 _atom_site_label
 _atom_site_symmetry_multiplicity
 _atom_site_fract_x
 _atom_site_fract_y
 _atom_site_fract_z
 _atom_site_occupancy
  Ba  Ba0  1  0.12588385  0.62470584  0.62470584  1
  Ba  Ba1  1  0.62470584  0.62470584  0.62470584  1
  Ba  Ba2  1  0.62470584  0.12588385  0.62470584  1
  Ba  Ba3  1  0.62470584  0.62470584  0.12588385  1
  Ga  Ga4  1  0.25000017  0.25000017  0.25000017  1
  Hg  Hg5  1  0.00000000  0.00000000  0.00000000  1
