# generated using pymatgen
data_BeCr2P
_symmetry_space_group_name_H-M   'P 1'
_cell_length_a   4.35172522
_cell_length_b   4.35172522
_cell_length_c   4.35172522
_cell_angle_alpha   133.57738208
_cell_angle_beta   133.57738208
_cell_angle_gamma   67.74884741
_symmetry_Int_Tables_number   1
_chemical_formula_structural   BeCr2P
_chemical_formula_sum   'Be1 Cr2 P1'
_cell_volume   42.51315913
_cell_formula_units_Z   1
loop_
 _symmetry_equiv_pos_site_id
 _symmetry_equiv_pos_as_xyz
  1  'x, y, z'
loop_
 _atom_site_type_symbol
 _atom_site_label
 _atom_site_symmetry_multiplicity
 _atom_site_fract_x
 _atom_site_fract_y
 _atom_site_fract_z
 _atom_site_occupancy
  Be  Be0  1  0.75000116  0.25000010  0.50000105  1
  Cr  Cr1  1  0.00000000  0.00000000  0.00000000  1
  Cr  Cr2  1  0.25000010  0.75000116  0.50000105  1
  P  P3  1  0.50000021  0.50000021  0.00000000  1
