# generated using pymatgen
data_Hf2BeBr
_symmetry_space_group_name_H-M   'P 1'
_cell_length_a   3.16698485
_cell_length_b   3.16698485
_cell_length_c   8.80973958
_cell_angle_alpha   90.00000000
_cell_angle_beta   90.00000000
_cell_angle_gamma   90.00000000
_symmetry_Int_Tables_number   1
_chemical_formula_structural   Hf2BeBr
_chemical_formula_sum   'Hf2 Be1 Br1'
_cell_volume   88.35986491
_cell_formula_units_Z   1
loop_
 _symmetry_equiv_pos_site_id
 _symmetry_equiv_pos_as_xyz
  1  'x, y, z'
loop_
 _atom_site_type_symbol
 _atom_site_label
 _atom_site_symmetry_multiplicity
 _atom_site_fract_x
 _atom_site_fract_y
 _atom_site_fract_z
 _atom_site_occupancy
  Hf  Hf0  1  0.00000000  0.00000000  0.00600854  1
  Hf  Hf1  1  0.49999923  0.49999923  0.26319564  1
  Be  Be2  1  0.00000000  0.00000000  0.42895052  1
  Br  Br3  1  0.49999923  0.49999923  0.80184437  1
