# generated using pymatgen
data_Be2ZnW
_symmetry_space_group_name_H-M   'P 1'
_cell_length_a   4.80506482
_cell_length_b   4.80506482
_cell_length_c   4.80506482
_cell_angle_alpha   138.77871518
_cell_angle_beta   138.77871518
_cell_angle_gamma   59.71242884
_symmetry_Int_Tables_number   1
_chemical_formula_structural   Be2ZnW
_chemical_formula_sum   'Be2 Zn1 W1'
_cell_volume   47.69132550
_cell_formula_units_Z   1
loop_
 _symmetry_equiv_pos_site_id
 _symmetry_equiv_pos_as_xyz
  1  'x, y, z'
loop_
 _atom_site_type_symbol
 _atom_site_label
 _atom_site_symmetry_multiplicity
 _atom_site_fract_x
 _atom_site_fract_y
 _atom_site_fract_z
 _atom_site_occupancy
  Be  Be0  1  0.00000000  0.00000000  0.00000000  1
  Be  Be1  1  0.24999974  0.75000053  0.50000078  1
  Zn  Zn2  1  0.75000053  0.24999974  0.50000078  1
  W  W3  1  0.49999948  0.49999948  0.00000000  1
