# generated using pymatgen
data_Pr2CuO4
_symmetry_space_group_name_H-M   'P 1'
_cell_length_a   7.00736139
_cell_length_b   7.00736139
_cell_length_c   5.51657587
_cell_angle_alpha   90.00000000
_cell_angle_beta   90.00000000
_cell_angle_gamma   135.90563664
_symmetry_Int_Tables_number   1
_chemical_formula_structural   Pr2CuO4
_chemical_formula_sum   'Pr4 Cu2 O8'
_cell_volume   188.49045239
_cell_formula_units_Z   2
loop_
 _symmetry_equiv_pos_site_id
 _symmetry_equiv_pos_as_xyz
  1  'x, y, z'
loop_
 _atom_site_type_symbol
 _atom_site_label
 _atom_site_symmetry_multiplicity
 _atom_site_fract_x
 _atom_site_fract_y
 _atom_site_fract_z
 _atom_site_occupancy
  Pr  Pr0  1  0.13849446  0.86150436  0.51426616  1
  Pr  Pr1  1  0.36150424  0.63849458  0.01426579  1
  Pr  Pr2  1  0.63849458  0.36150424  0.98573496  1
  Pr  Pr3  1  0.86150436  0.13849446  0.48573459  1
  Cu  Cu4  1  0.49999941  0.49999941  0.50000037  1
  Cu  Cu5  1  0.00000000  0.00000000  0.00000000  1
  O  O6  1  0.73658847  0.76340976  0.75000056  1
  O  O7  1  0.76340976  0.73658847  0.25000019  1
  O  O8  1  0.26341035  0.23658906  0.25000019  1
  O  O9  1  0.23658906  0.26341035  0.75000056  1
  O  O10  1  0.31483201  0.68516681  0.43940897  1
  O  O11  1  0.18516670  0.81483212  0.93940934  1
  O  O12  1  0.81483212  0.18516670  0.06059141  1
  O  O13  1  0.68516681  0.31483201  0.56059178  1
