# generated using pymatgen
data_SrBeBi4
_symmetry_space_group_name_H-M   'P 1'
_cell_length_a   6.59276003
_cell_length_b   6.59276003
_cell_length_c   6.59276003
_cell_angle_alpha   60.00000000
_cell_angle_beta   60.00000000
_cell_angle_gamma   60.00000000
_symmetry_Int_Tables_number   1
_chemical_formula_structural   SrBeBi4
_chemical_formula_sum   'Sr1 Be1 Bi4'
_cell_volume   202.62209785
_cell_formula_units_Z   1
loop_
 _symmetry_equiv_pos_site_id
 _symmetry_equiv_pos_as_xyz
  1  'x, y, z'
loop_
 _atom_site_type_symbol
 _atom_site_label
 _atom_site_symmetry_multiplicity
 _atom_site_fract_x
 _atom_site_fract_y
 _atom_site_fract_z
 _atom_site_occupancy
  Sr  Sr0  1  0.25000025  0.25000025  0.25000025  1
  Be  Be1  1  0.00000000  0.00000000  0.00000000  1
  Bi  Bi2  1  0.12178795  0.62607102  0.62607102  1
  Bi  Bi3  1  0.62607102  0.62607102  0.62607102  1
  Bi  Bi4  1  0.62607102  0.12178795  0.62607102  1
  Bi  Bi5  1  0.62607102  0.62607102  0.12178795  1
