# generated using pymatgen
data_LaOs2
_symmetry_space_group_name_H-M   'P 1'
_cell_length_a   5.39429135
_cell_length_b   5.39434079
_cell_length_c   9.29575029
_cell_angle_alpha   90.00000000
_cell_angle_beta   90.00000000
_cell_angle_gamma   119.99969680
_symmetry_Int_Tables_number   1
_chemical_formula_structural   LaOs2
_chemical_formula_sum   'La4 Os8'
_cell_volume   234.25517105
_cell_formula_units_Z   4
loop_
 _symmetry_equiv_pos_site_id
 _symmetry_equiv_pos_as_xyz
  1  'x, y, z'
loop_
 _atom_site_type_symbol
 _atom_site_label
 _atom_site_symmetry_multiplicity
 _atom_site_fract_x
 _atom_site_fract_y
 _atom_site_fract_z
 _atom_site_occupancy
  La  La0  1  0.66666971  0.33333910  0.06543757  1
  La  La1  1  0.33333184  0.66666276  0.56543756  1
  La  La2  1  0.33333184  0.66666276  0.93456239  1
  La  La3  1  0.66666971  0.33333910  0.43456241  1
  Os  Os4  1  0.00000000  0.00000000  0.00000000  1
  Os  Os5  1  0.00000000  0.00000000  0.49999998  1
  Os  Os6  1  0.66117603  0.83059406  0.24999999  1
  Os  Os7  1  0.16941889  0.83059349  0.24999999  1
  Os  Os8  1  0.16941076  0.33882105  0.24999999  1
  Os  Os9  1  0.33882552  0.16940780  0.74999998  1
  Os  Os10  1  0.83058266  0.16940837  0.74999998  1
  Os  Os11  1  0.83059079  0.66118081  0.74999998  1
