# generated using pymatgen
data_NaBe2Pd
_symmetry_space_group_name_H-M   'P 1'
_cell_length_a   2.86549280
_cell_length_b   2.86549280
_cell_length_c   6.89405372
_cell_angle_alpha   90.00000000
_cell_angle_beta   90.00000000
_cell_angle_gamma   90.00000000
_symmetry_Int_Tables_number   1
_chemical_formula_structural   NaBe2Pd
_chemical_formula_sum   'Na1 Be2 Pd1'
_cell_volume   56.60741283
_cell_formula_units_Z   1
loop_
 _symmetry_equiv_pos_site_id
 _symmetry_equiv_pos_as_xyz
  1  'x, y, z'
loop_
 _atom_site_type_symbol
 _atom_site_label
 _atom_site_symmetry_multiplicity
 _atom_site_fract_x
 _atom_site_fract_y
 _atom_site_fract_z
 _atom_site_occupancy
  Na  Na0  1  0.00000000  0.00000000  0.49701151  1
  Be  Be1  1  0.00000000  0.00000000  0.00995153  1
  Be  Be2  1  0.49999951  0.49999951  0.16276126  1
  Pd  Pd3  1  0.49999951  0.49999951  0.83027390  1
