# generated using pymatgen
data_MnBe2Pd
_symmetry_space_group_name_H-M   'P 1'
_cell_length_a   2.75027761
_cell_length_b   2.75027761
_cell_length_c   5.61428472
_cell_angle_alpha   90.00000000
_cell_angle_beta   90.00000000
_cell_angle_gamma   90.00000000
_symmetry_Int_Tables_number   1
_chemical_formula_structural   MnBe2Pd
_chemical_formula_sum   'Mn1 Be2 Pd1'
_cell_volume   42.46660092
_cell_formula_units_Z   1
loop_
 _symmetry_equiv_pos_site_id
 _symmetry_equiv_pos_as_xyz
  1  'x, y, z'
loop_
 _atom_site_type_symbol
 _atom_site_label
 _atom_site_symmetry_multiplicity
 _atom_site_fract_x
 _atom_site_fract_y
 _atom_site_fract_z
 _atom_site_occupancy
  Mn  Mn0  1  0.50000043  0.50000043  0.00000000  1
  Be  Be1  1  0.00000000  0.00000000  0.75804859  1
  Be  Be2  1  0.00000000  0.00000000  0.24195057  1
  Pd  Pd3  1  0.50000043  0.50000043  0.49999958  1
