# generated using pymatgen
data_Y(MnBe)2
_symmetry_space_group_name_H-M   'P 1'
_cell_length_a   5.97932038
_cell_length_b   5.97932038
_cell_length_c   5.97932038
_cell_angle_alpha   146.25082598
_cell_angle_beta   146.25082598
_cell_angle_gamma   48.47435225
_symmetry_Int_Tables_number   1
_chemical_formula_structural   Y(MnBe)2
_chemical_formula_sum   'Y1 Mn2 Be2'
_cell_volume   65.70044813
_cell_formula_units_Z   1
loop_
 _symmetry_equiv_pos_site_id
 _symmetry_equiv_pos_as_xyz
  1  'x, y, z'
loop_
 _atom_site_type_symbol
 _atom_site_label
 _atom_site_symmetry_multiplicity
 _atom_site_fract_x
 _atom_site_fract_y
 _atom_site_fract_z
 _atom_site_occupancy
  Y  Y0  1  0.00000000  0.00000000  0.00000000  1
  Mn  Mn1  1  0.74999903  0.25000014  0.49999889  1
  Mn  Mn2  1  0.25000014  0.74999903  0.49999889  1
  Be  Be3  1  0.61195470  0.61195470  0.00000000  1
  Be  Be4  1  0.38804587  0.38804587  0.00000000  1
