# generated using pymatgen
data_TiZn(BiO3)2
_symmetry_space_group_name_H-M   'P 1'
_cell_length_a   3.90530055
_cell_length_b   3.90530055
_cell_length_c   8.02737040
_cell_angle_alpha   90.00000000
_cell_angle_beta   90.00000000
_cell_angle_gamma   90.00000000
_symmetry_Int_Tables_number   1
_chemical_formula_structural   TiZn(BiO3)2
_chemical_formula_sum   'Ti1 Zn1 Bi2 O6'
_cell_volume   122.42841544
_cell_formula_units_Z   1
loop_
 _symmetry_equiv_pos_site_id
 _symmetry_equiv_pos_as_xyz
  1  'x, y, z'
loop_
 _atom_site_type_symbol
 _atom_site_label
 _atom_site_symmetry_multiplicity
 _atom_site_fract_x
 _atom_site_fract_y
 _atom_site_fract_z
 _atom_site_occupancy
  Ti  Ti0  1  0.49999993  0.49999993  0.49999998  1
  Zn  Zn1  1  0.49999993  0.49999993  0.00000000  1
  Bi  Bi2  1  0.00000000  0.00000000  0.22274451  1
  Bi  Bi3  1  0.00000000  0.00000000  0.77725544  1
  O  O4  1  0.00000000  0.49999993  0.00000000  1
  O  O5  1  0.49999993  0.00000000  0.00000000  1
  O  O6  1  0.00000000  0.49999993  0.49999998  1
  O  O7  1  0.49999993  0.00000000  0.49999998  1
  O  O8  1  0.49999993  0.49999993  0.25827784  1
  O  O9  1  0.49999993  0.49999993  0.74172212  1
