# generated using pymatgen
data_TbZnPd
_symmetry_space_group_name_H-M   'P 1'
_cell_length_a   7.31414646
_cell_length_b   7.31414646
_cell_length_c   3.84131408
_cell_angle_alpha   90.00000000
_cell_angle_beta   90.00000000
_cell_angle_gamma   120.00042687
_symmetry_Int_Tables_number   1
_chemical_formula_structural   TbZnPd
_chemical_formula_sum   'Tb3 Zn3 Pd3'
_cell_volume   177.96552772
_cell_formula_units_Z   3
loop_
 _symmetry_equiv_pos_site_id
 _symmetry_equiv_pos_as_xyz
  1  'x, y, z'
loop_
 _atom_site_type_symbol
 _atom_site_label
 _atom_site_symmetry_multiplicity
 _atom_site_fract_x
 _atom_site_fract_y
 _atom_site_fract_z
 _atom_site_occupancy
  Tb  Tb0  1  0.59614083  0.00000006  0.00000000  1
  Tb  Tb1  1  0.00000006  0.59614083  0.00000000  1
  Tb  Tb2  1  0.40385939  0.40385939  0.00000000  1
  Zn  Zn3  1  0.25307151  -0.00000070  0.49999947  1
  Zn  Zn4  1  -0.00000070  0.25307151  0.49999947  1
  Zn  Zn5  1  0.74692885  0.74692885  0.49999947  1
  Pd  Pd6  1  0.00000022  0.00000022  0.00000000  1
  Pd  Pd7  1  0.33333350  0.66666662  0.49999947  1
  Pd  Pd8  1  0.66666662  0.33333350  0.49999947  1
