# generated using pymatgen
data_CO2
_symmetry_space_group_name_H-M   'P 1'
_cell_length_a   4.47703563
_cell_length_b   4.47703563
_cell_length_c   8.21264341
_cell_angle_alpha   90.00000000
_cell_angle_beta   90.00000000
_cell_angle_gamma   90.00000000
_symmetry_Int_Tables_number   1
_chemical_formula_structural   CO2
_chemical_formula_sum   'C4 O8'
_cell_volume   164.61297654
_cell_formula_units_Z   4
loop_
 _symmetry_equiv_pos_site_id
 _symmetry_equiv_pos_as_xyz
  1  'x, y, z'
loop_
 _atom_site_type_symbol
 _atom_site_label
 _atom_site_symmetry_multiplicity
 _atom_site_fract_x
 _atom_site_fract_y
 _atom_site_fract_z
 _atom_site_occupancy
  C  C0  1  0.49994902  0.49994902  0.00000000  1
  C  C1  1  0.50005195  0.50005195  0.49999979  1
  C  C2  1  0.00005146  -0.00005146  0.24999990  1
  C  C3  1  -0.00005146  0.00005146  0.74999969  1
  O  O4  1  0.18528295  0.18518459  0.25004300  1
  O  O5  1  0.81471803  0.81481638  0.75004280  1
  O  O6  1  0.31481589  0.68528344  0.50004290  1
  O  O7  1  0.68518508  0.31471754  0.00004311  1
  O  O8  1  0.31471754  0.68518508  -0.00004311  1
  O  O9  1  0.68528344  0.31481589  0.49995669  1
  O  O10  1  0.18518459  0.18528295  0.74995658  1
  O  O11  1  0.81481638  0.81471803  0.24995679  1
