# generated using pymatgen
data_LiCaBe
_symmetry_space_group_name_H-M   'P 1'
_cell_length_a   4.47021436
_cell_length_b   4.47021436
_cell_length_c   3.78127928
_cell_angle_alpha   90.00000000
_cell_angle_beta   90.00000000
_cell_angle_gamma   120.00000489
_symmetry_Int_Tables_number   1
_chemical_formula_structural   LiCaBe
_chemical_formula_sum   'Li1 Ca1 Be1'
_cell_volume   65.43740448
_cell_formula_units_Z   1
loop_
 _symmetry_equiv_pos_site_id
 _symmetry_equiv_pos_as_xyz
  1  'x, y, z'
loop_
 _atom_site_type_symbol
 _atom_site_label
 _atom_site_symmetry_multiplicity
 _atom_site_fract_x
 _atom_site_fract_y
 _atom_site_fract_z
 _atom_site_occupancy
  Li  Li0  1  0.66666770  0.33333364  0.16670426  1
  Ca  Ca1  1  0.33333364  0.66666770  0.66663592  1
  Be  Be2  1  0.00000000  0.00000000  0.16666001  1
