# generated using pymatgen
data_Be2NbMo
_symmetry_space_group_name_H-M   'P 1'
_cell_length_a   4.85741916
_cell_length_b   4.85741916
_cell_length_c   4.85741916
_cell_angle_alpha   137.01233054
_cell_angle_beta   137.01233054
_cell_angle_gamma   62.41907888
_symmetry_Int_Tables_number   1
_chemical_formula_structural   Be2NbMo
_chemical_formula_sum   'Be2 Nb1 Mo1'
_cell_volume   52.63778342
_cell_formula_units_Z   1
loop_
 _symmetry_equiv_pos_site_id
 _symmetry_equiv_pos_as_xyz
  1  'x, y, z'
loop_
 _atom_site_type_symbol
 _atom_site_label
 _atom_site_symmetry_multiplicity
 _atom_site_fract_x
 _atom_site_fract_y
 _atom_site_fract_z
 _atom_site_occupancy
  Be  Be0  1  0.00000000  0.00000000  0.00000000  1
  Be  Be1  1  0.24999977  0.74999872  0.49999894  1
  Nb  Nb2  1  0.74999872  0.24999977  0.49999894  1
  Mo  Mo3  1  0.49999955  0.49999955  0.00000000  1
