# generated using pymatgen
data_VCrO4
_symmetry_space_group_name_H-M   'P 1'
_cell_length_a   4.98089991
_cell_length_b   4.98089991
_cell_length_c   6.03208288
_cell_angle_alpha   90.00000000
_cell_angle_beta   90.00000000
_cell_angle_gamma   111.71154142
_symmetry_Int_Tables_number   1
_chemical_formula_structural   VCrO4
_chemical_formula_sum   'V2 Cr2 O8'
_cell_volume   139.03552803
_cell_formula_units_Z   2
loop_
 _symmetry_equiv_pos_site_id
 _symmetry_equiv_pos_as_xyz
  1  'x, y, z'
loop_
 _atom_site_type_symbol
 _atom_site_label
 _atom_site_symmetry_multiplicity
 _atom_site_fract_x
 _atom_site_fract_y
 _atom_site_fract_z
 _atom_site_occupancy
  V  V0  1  0.64258921  0.35741087  0.74999964  1
  V  V1  1  0.35741087  0.64258921  0.24999988  1
  Cr  Cr2  1  0.00000000  0.00000000  0.00000000  1
  Cr  Cr3  1  0.00000000  0.00000000  0.49999976  1
  O  O4  1  0.76533487  0.23466521  0.97267346  1
  O  O5  1  0.23466521  0.76533487  0.47267370  1
  O  O6  1  0.76533487  0.23466521  0.52732582  1
  O  O7  1  0.23466521  0.76533487  0.02732606  1
  O  O8  1  0.25084953  0.21367732  0.74999964  1
  O  O9  1  0.74915055  0.78632277  0.24999988  1
  O  O10  1  0.78632277  0.74915055  0.74999964  1
  O  O11  1  0.21367732  0.25084953  0.24999988  1
