# generated using pymatgen
data_BeGe2Pb
_symmetry_space_group_name_H-M   'P 1'
_cell_length_a   3.92294062
_cell_length_b   3.92294062
_cell_length_c   5.33726628
_cell_angle_alpha   90.00000000
_cell_angle_beta   90.00000000
_cell_angle_gamma   90.00000000
_symmetry_Int_Tables_number   1
_chemical_formula_structural   BeGe2Pb
_chemical_formula_sum   'Be1 Ge2 Pb1'
_cell_volume   82.13766242
_cell_formula_units_Z   1
loop_
 _symmetry_equiv_pos_site_id
 _symmetry_equiv_pos_as_xyz
  1  'x, y, z'
loop_
 _atom_site_type_symbol
 _atom_site_label
 _atom_site_symmetry_multiplicity
 _atom_site_fract_x
 _atom_site_fract_y
 _atom_site_fract_z
 _atom_site_occupancy
  Be  Be0  1  0.00000000  0.00000000  0.50000035  1
  Ge  Ge1  1  0.00000000  0.49999992  0.00000000  1
  Ge  Ge2  1  0.49999992  0.00000000  0.00000000  1
  Pb  Pb3  1  0.49999992  0.49999992  0.50000035  1
