# generated using pymatgen
data_OsN2
_symmetry_space_group_name_H-M   'P 1'
_cell_length_a   4.88200314
_cell_length_b   4.88200314
_cell_length_c   4.88200314
_cell_angle_alpha   90.00000000
_cell_angle_beta   90.00000000
_cell_angle_gamma   90.00000000
_symmetry_Int_Tables_number   1
_chemical_formula_structural   OsN2
_chemical_formula_sum   'Os4 N8'
_cell_volume   116.35744170
_cell_formula_units_Z   4
loop_
 _symmetry_equiv_pos_site_id
 _symmetry_equiv_pos_as_xyz
  1  'x, y, z'
loop_
 _atom_site_type_symbol
 _atom_site_label
 _atom_site_symmetry_multiplicity
 _atom_site_fract_x
 _atom_site_fract_y
 _atom_site_fract_z
 _atom_site_occupancy
  Os  Os0  1  0.00000000  0.00000000  0.00000000  1
  Os  Os1  1  0.49999968  0.00000000  0.49999968  1
  Os  Os2  1  0.00000000  0.49999968  0.49999968  1
  Os  Os3  1  0.49999968  0.49999968  0.00000000  1
  N  N4  1  0.58479972  0.58479972  0.41519964  1
  N  N5  1  0.91519931  0.41519964  0.91519931  1
  N  N6  1  0.41519964  0.08480004  0.08480004  1
  N  N7  1  0.08480004  0.91519931  0.58479972  1
  N  N8  1  0.41519964  0.41519964  0.58479972  1
  N  N9  1  0.08480004  0.58479972  0.08480004  1
  N  N10  1  0.58479972  0.91519931  0.91519931  1
  N  N11  1  0.91519931  0.08480004  0.41519964  1
