# generated using pymatgen
data_Ba3(LiSb)4
_symmetry_space_group_name_H-M   'P 1'
_cell_length_a   9.44559051
_cell_length_b   9.44559051
_cell_length_c   9.44559051
_cell_angle_alpha   149.17084628
_cell_angle_beta   132.09414604
_cell_angle_gamma   58.05870696
_symmetry_Int_Tables_number   1
_chemical_formula_structural   Ba3(LiSb)4
_chemical_formula_sum   'Ba3 Li4 Sb4'
_cell_volume   318.06174784
_cell_formula_units_Z   1
loop_
 _symmetry_equiv_pos_site_id
 _symmetry_equiv_pos_as_xyz
  1  'x, y, z'
loop_
 _atom_site_type_symbol
 _atom_site_label
 _atom_site_symmetry_multiplicity
 _atom_site_fract_x
 _atom_site_fract_y
 _atom_site_fract_z
 _atom_site_occupancy
  Ba  Ba0  1  0.00000000  0.49999979  0.49999979  1
  Ba  Ba1  1  0.36820542  0.36820542  0.00000000  1
  Ba  Ba2  1  0.63179428  0.63179428  -0.00000000  1
  Li  Li3  1  0.01779185  0.82562233  0.19216909  1
  Li  Li4  1  0.36654699  0.17437730  0.19216968  1
  Li  Li5  1  0.98220838  0.17437730  0.80783107  1
  Li  Li6  1  0.63345324  0.82562233  0.80783048  1
  Sb  Sb7  1  0.31085082  -0.00000000  0.31085082  1
  Sb  Sb8  1  0.68914994  0.00000000  0.68914994  1
  Sb  Sb9  1  0.78635845  0.28635807  0.50000038  1
  Sb  Sb10  1  0.21364178  0.71364157  0.49999979  1
