# generated using pymatgen
data_ErNi4
_symmetry_space_group_name_H-M   'P 1'
_cell_length_a   4.82432329
_cell_length_b   4.82432329
_cell_length_c   10.15697897
_cell_angle_alpha   85.34879053
_cell_angle_beta   85.34879053
_cell_angle_gamma   120.28281005
_symmetry_Int_Tables_number   1
_chemical_formula_structural   ErNi4
_chemical_formula_sum   'Er3 Ni12'
_cell_volume   201.41177544
_cell_formula_units_Z   3
loop_
 _symmetry_equiv_pos_site_id
 _symmetry_equiv_pos_as_xyz
  1  'x, y, z'
loop_
 _atom_site_type_symbol
 _atom_site_label
 _atom_site_symmetry_multiplicity
 _atom_site_fract_x
 _atom_site_fract_y
 _atom_site_fract_z
 _atom_site_occupancy
  Er  Er0  1  0.00000000  0.00000000  0.00000000  1
  Er  Er1  1  0.12877610  0.12877610  0.64400819  1
  Er  Er2  1  0.87122361  0.87122361  0.35599197  1
  Ni  Ni3  1  0.33496043  0.66503893  -0.00000002  1
  Ni  Ni4  1  0.66503893  0.33496043  -0.00000002  1
  Ni  Ni5  1  0.57006558  0.57006558  0.79928524  1
  Ni  Ni6  1  0.42993413  0.42993413  0.20071491  1
  Ni  Ni7  1  0.56666545  0.06696477  0.80226038  1
  Ni  Ni8  1  0.93303493  0.43333425  0.19773978  1
  Ni  Ni9  1  0.43333425  0.93303493  0.19773978  1
  Ni  Ni10  1  0.06696477  0.56666545  0.80226038  1
  Ni  Ni11  1  0.46263137  0.80954434  0.59511751  1
  Ni  Ni12  1  0.19045536  0.53736834  0.40488265  1
  Ni  Ni13  1  0.53736834  0.19045536  0.40488265  1
  Ni  Ni14  1  0.80954434  0.46263137  0.59511751  1
