# generated using pymatgen
data_YCoGe
_symmetry_space_group_name_H-M   'P 1'
_cell_length_a   4.22670117
_cell_length_b   6.88229345
_cell_length_c   7.17607685
_cell_angle_alpha   90.00000000
_cell_angle_beta   90.00000000
_cell_angle_gamma   90.00000000
_symmetry_Int_Tables_number   1
_chemical_formula_structural   YCoGe
_chemical_formula_sum   'Y4 Co4 Ge4'
_cell_volume   208.74775406
_cell_formula_units_Z   4
loop_
 _symmetry_equiv_pos_site_id
 _symmetry_equiv_pos_as_xyz
  1  'x, y, z'
loop_
 _atom_site_type_symbol
 _atom_site_label
 _atom_site_symmetry_multiplicity
 _atom_site_fract_x
 _atom_site_fract_y
 _atom_site_fract_z
 _atom_site_occupancy
  Y  Y0  1  0.24999993  0.01047314  0.80264006  1
  Y  Y1  1  0.74999979  0.48952661  0.30263984  1
  Y  Y2  1  0.74999979  0.98952636  0.19736038  1
  Y  Y3  1  0.24999993  0.51047289  0.69736060  1
  Co  Co4  1  0.24999993  0.84312767  0.43102356  1
  Co  Co5  1  0.74999979  0.65687158  0.93102378  1
  Co  Co6  1  0.74999979  0.15687183  0.56897688  1
  Co  Co7  1  0.24999993  0.34312792  0.06897666  1
  Ge  Ge8  1  0.24999993  0.20181695  0.40021080  1
  Ge  Ge9  1  0.74999979  0.29818280  0.90021102  1
  Ge  Ge10  1  0.74999979  0.79818255  0.59978963  1
  Ge  Ge11  1  0.24999993  0.70181670  0.09978941  1
