# generated using pymatgen
data_TiSiO4
_symmetry_space_group_name_H-M   'P 1'
_cell_length_a   5.36160541
_cell_length_b   5.36160541
_cell_length_c   5.36160541
_cell_angle_alpha   107.93504865
_cell_angle_beta   107.93504865
_cell_angle_gamma   112.58928543
_symmetry_Int_Tables_number   1
_chemical_formula_structural   TiSiO4
_chemical_formula_sum   'Ti2 Si2 O8'
_cell_volume   118.38351745
_cell_formula_units_Z   2
loop_
 _symmetry_equiv_pos_site_id
 _symmetry_equiv_pos_as_xyz
  1  'x, y, z'
loop_
 _atom_site_type_symbol
 _atom_site_label
 _atom_site_symmetry_multiplicity
 _atom_site_fract_x
 _atom_site_fract_y
 _atom_site_fract_z
 _atom_site_occupancy
  Ti  Ti0  1  0.12499956  0.87499939  0.24999995  1
  Ti  Ti1  1  0.87499967  0.12499983  0.74999984  1
  Si  Si2  1  0.37499978  0.62499973  0.74999984  1
  Si  Si3  1  0.62499945  0.37499950  0.24999995  1
  O  O4  1  0.75074696  0.80908800  0.94165874  1
  O  O5  1  0.36742915  0.80908800  0.55834094  1
  O  O6  1  0.80908772  0.75074668  0.44165885  1
  O  O7  1  0.80908772  0.36742888  0.05834104  1
  O  O8  1  0.63257007  0.19091123  0.44165885  1
  O  O9  1  0.24925227  0.19091123  0.05834104  1
  O  O10  1  0.19091150  0.24925255  0.55834094  1
  O  O11  1  0.19091150  0.63257035  0.94165874  1
