# generated using pymatgen
data_ScBe2Re
_symmetry_space_group_name_H-M   'P 1'
_cell_length_a   2.75075342
_cell_length_b   2.75075342
_cell_length_c   6.90668528
_cell_angle_alpha   90.00000000
_cell_angle_beta   90.00000000
_cell_angle_gamma   90.00000000
_symmetry_Int_Tables_number   1
_chemical_formula_structural   ScBe2Re
_chemical_formula_sum   'Sc1 Be2 Re1'
_cell_volume   52.26043131
_cell_formula_units_Z   1
loop_
 _symmetry_equiv_pos_site_id
 _symmetry_equiv_pos_as_xyz
  1  'x, y, z'
loop_
 _atom_site_type_symbol
 _atom_site_label
 _atom_site_symmetry_multiplicity
 _atom_site_fract_x
 _atom_site_fract_y
 _atom_site_fract_z
 _atom_site_occupancy
  Sc  Sc0  1  0.49999938  0.49999938  0.77441912  1
  Be  Be1  1  0.00000000  0.00000000  0.06347052  1
  Be  Be2  1  0.49999938  0.49999938  0.21651052  1
  Re  Re3  1  0.00000000  0.00000000  0.44560087  1
