# generated using pymatgen
data_CeZnPd
_symmetry_space_group_name_H-M   'P 1'
_cell_length_a   7.35348834
_cell_length_b   7.35348834
_cell_length_c   3.98957451
_cell_angle_alpha   90.00000000
_cell_angle_beta   90.00000000
_cell_angle_gamma   119.99932059
_symmetry_Int_Tables_number   1
_chemical_formula_structural   CeZnPd
_chemical_formula_sum   'Ce3 Zn3 Pd3'
_cell_volume   186.83016668
_cell_formula_units_Z   3
loop_
 _symmetry_equiv_pos_site_id
 _symmetry_equiv_pos_as_xyz
  1  'x, y, z'
loop_
 _atom_site_type_symbol
 _atom_site_label
 _atom_site_symmetry_multiplicity
 _atom_site_fract_x
 _atom_site_fract_y
 _atom_site_fract_z
 _atom_site_occupancy
  Ce  Ce0  1  0.41005508  -0.00000466  0.00000000  1
  Ce  Ce1  1  -0.00000466  0.41005508  0.00000000  1
  Ce  Ce2  1  0.58993835  0.58993835  0.00000000  1
  Zn  Zn3  1  0.75553941  -0.00001636  0.49999943  1
  Zn  Zn4  1  -0.00001636  0.75553941  0.49999943  1
  Zn  Zn5  1  0.24444955  0.24444955  0.49999943  1
  Pd  Pd6  1  0.00001387  0.00001387  0.00000000  1
  Pd  Pd7  1  0.66666533  0.33335785  0.49999943  1
  Pd  Pd8  1  0.33335785  0.66666533  0.49999943  1
