# generated using pymatgen
data_MnBePd
_symmetry_space_group_name_H-M   'P 1'
_cell_length_a   2.61398653
_cell_length_b   2.61398653
_cell_length_c   5.94418480
_cell_angle_alpha   90.00000000
_cell_angle_beta   90.00000000
_cell_angle_gamma   120.00000452
_symmetry_Int_Tables_number   1
_chemical_formula_structural   MnBePd
_chemical_formula_sum   'Mn1 Be1 Pd1'
_cell_volume   35.17463559
_cell_formula_units_Z   1
loop_
 _symmetry_equiv_pos_site_id
 _symmetry_equiv_pos_as_xyz
  1  'x, y, z'
loop_
 _atom_site_type_symbol
 _atom_site_label
 _atom_site_symmetry_multiplicity
 _atom_site_fract_x
 _atom_site_fract_y
 _atom_site_fract_z
 _atom_site_occupancy
  Mn  Mn0  1  0.66666587  0.33333170  0.31274294  1
  Be  Be1  1  0.00000000  0.00000000  0.00448159  1
  Pd  Pd2  1  0.33333170  0.66666587  0.68277466  1
