# generated using pymatgen
data_HfBe2V
_symmetry_space_group_name_H-M   'P 1'
_cell_length_a   3.06130754
_cell_length_b   3.06130754
_cell_length_c   5.53632444
_cell_angle_alpha   90.00000000
_cell_angle_beta   90.00000000
_cell_angle_gamma   90.00000000
_symmetry_Int_Tables_number   1
_chemical_formula_structural   HfBe2V
_chemical_formula_sum   'Hf1 Be2 V1'
_cell_volume   51.88423952
_cell_formula_units_Z   1
loop_
 _symmetry_equiv_pos_site_id
 _symmetry_equiv_pos_as_xyz
  1  'x, y, z'
loop_
 _atom_site_type_symbol
 _atom_site_label
 _atom_site_symmetry_multiplicity
 _atom_site_fract_x
 _atom_site_fract_y
 _atom_site_fract_z
 _atom_site_occupancy
  Hf  Hf0  1  0.50000040  0.50000040  0.00000000  1
  Be  Be1  1  0.00000000  0.00000000  0.70113884  1
  Be  Be2  1  0.00000000  0.00000000  0.29886036  1
  V  V3  1  0.50000040  0.50000040  0.49999960  1
