# generated using pymatgen
data_Ga(MoS2)4
_symmetry_space_group_name_H-M   'P 1'
_cell_length_a   6.93479501
_cell_length_b   6.93479501
_cell_length_c   6.93479501
_cell_angle_alpha   60.00444632
_cell_angle_beta   60.00444632
_cell_angle_gamma   60.00444632
_symmetry_Int_Tables_number   1
_chemical_formula_structural   Ga(MoS2)4
_chemical_formula_sum   'Ga1 Mo4 S8'
_cell_volume   235.84662343
_cell_formula_units_Z   1
loop_
 _symmetry_equiv_pos_site_id
 _symmetry_equiv_pos_as_xyz
  1  'x, y, z'
loop_
 _atom_site_type_symbol
 _atom_site_label
 _atom_site_symmetry_multiplicity
 _atom_site_fract_x
 _atom_site_fract_y
 _atom_site_fract_z
 _atom_site_occupancy
  Ga  Ga0  1  0.00122711  0.00122711  0.00122711  1
  Mo  Mo1  1  0.39895133  0.39895133  0.39895044  1
  Mo  Mo2  1  0.39894647  0.39894647  0.80807851  1
  Mo  Mo3  1  0.80807953  0.39894655  0.39894524  1
  Mo  Mo4  1  0.39894655  0.80807953  0.39894524  1
  S  S5  1  0.63521225  0.63521225  0.63521084  1
  S  S6  1  0.63520962  0.63520962  0.09928443  1
  S  S7  1  0.09928566  0.63520952  0.63520866  1
  S  S8  1  0.63520952  0.09928566  0.63520866  1
  S  S9  1  0.13692027  0.13692027  0.13691996  1
  S  S10  1  0.13691597  0.13691597  0.59418109  1
  S  S11  1  0.59418154  0.13691606  0.13691528  1
  S  S12  1  0.13691606  0.59418154  0.13691528  1
