# generated using pymatgen
data_BeGaHg
_symmetry_space_group_name_H-M   'P 1'
_cell_length_a   6.25287765
_cell_length_b   6.25287765
_cell_length_c   6.25287765
_cell_angle_alpha   152.75688282
_cell_angle_beta   152.75688282
_cell_angle_gamma   38.90902023
_symmetry_Int_Tables_number   1
_chemical_formula_structural   BeGaHg
_chemical_formula_sum   'Be1 Ga1 Hg1'
_cell_volume   51.14214390
_cell_formula_units_Z   1
loop_
 _symmetry_equiv_pos_site_id
 _symmetry_equiv_pos_as_xyz
  1  'x, y, z'
loop_
 _atom_site_type_symbol
 _atom_site_label
 _atom_site_symmetry_multiplicity
 _atom_site_fract_x
 _atom_site_fract_y
 _atom_site_fract_z
 _atom_site_occupancy
  Be  Be0  1  0.99122416  0.99122416  0.00000000  1
  Ga  Ga1  1  0.36332923  0.36332923  0.00000000  1
  Hg  Hg2  1  0.64544755  0.64544755  0.00000000  1
