# generated using pymatgen
data_LiBeP2
_symmetry_space_group_name_H-M   'P 1'
_cell_length_a   3.20931404
_cell_length_b   3.20931404
_cell_length_c   5.78011944
_cell_angle_alpha   90.00000000
_cell_angle_beta   90.00000000
_cell_angle_gamma   90.00000000
_symmetry_Int_Tables_number   1
_chemical_formula_structural   LiBeP2
_chemical_formula_sum   'Li1 Be1 P2'
_cell_volume   59.53347651
_cell_formula_units_Z   1
loop_
 _symmetry_equiv_pos_site_id
 _symmetry_equiv_pos_as_xyz
  1  'x, y, z'
loop_
 _atom_site_type_symbol
 _atom_site_label
 _atom_site_symmetry_multiplicity
 _atom_site_fract_x
 _atom_site_fract_y
 _atom_site_fract_z
 _atom_site_occupancy
  Li  Li0  1  0.49999937  0.49999937  0.79201155  1
  Be  Be1  1  -0.00000000  0.00000000  0.36115621  1
  P  P2  1  0.00000000  -0.00000000  -0.00522559  1
  P  P3  1  0.49999937  0.49999937  0.35205797  1
