# generated using pymatgen
data_KCaBe2
_symmetry_space_group_name_H-M   'P 1'
_cell_length_a   4.91266294
_cell_length_b   4.91266294
_cell_length_c   4.91266294
_cell_angle_alpha   120.06627588
_cell_angle_beta   120.06627588
_cell_angle_gamma   89.88524509
_symmetry_Int_Tables_number   1
_chemical_formula_structural   KCaBe2
_chemical_formula_sum   'K1 Ca1 Be2'
_cell_volume   83.75286751
_cell_formula_units_Z   1
loop_
 _symmetry_equiv_pos_site_id
 _symmetry_equiv_pos_as_xyz
  1  'x, y, z'
loop_
 _atom_site_type_symbol
 _atom_site_label
 _atom_site_symmetry_multiplicity
 _atom_site_fract_x
 _atom_site_fract_y
 _atom_site_fract_z
 _atom_site_occupancy
  K  K0  1  0.74999961  0.24999969  0.49999992  1
  Ca  Ca1  1  0.49999939  0.49999939  0.00000000  1
  Be  Be2  1  0.00000000  0.00000000  0.00000000  1
  Be  Be3  1  0.24999969  0.74999961  0.49999992  1
