# generated using pymatgen
data_Sr2Cu3(BrO2)2
_symmetry_space_group_name_H-M   'P 1'
_cell_length_a   7.72939801
_cell_length_b   7.72939801
_cell_length_c   7.72939801
_cell_angle_alpha   138.25008731
_cell_angle_beta   138.25008731
_cell_angle_gamma   60.52019345
_symmetry_Int_Tables_number   1
_chemical_formula_structural   Sr2Cu3(BrO2)2
_chemical_formula_sum   'Sr2 Cu3 Br2 O4'
_cell_volume   202.57567168
_cell_formula_units_Z   1
loop_
 _symmetry_equiv_pos_site_id
 _symmetry_equiv_pos_as_xyz
  1  'x, y, z'
loop_
 _atom_site_type_symbol
 _atom_site_label
 _atom_site_symmetry_multiplicity
 _atom_site_fract_x
 _atom_site_fract_y
 _atom_site_fract_z
 _atom_site_occupancy
  Sr  Sr0  1  0.63192566  0.63192566  0.00000000  1
  Sr  Sr1  1  0.36807402  0.36807402  0.00000000  1
  Cu  Cu2  1  0.00000000  0.00000000  0.00000000  1
  Cu  Cu3  1  0.00000000  0.49999936  0.49999936  1
  Cu  Cu4  1  0.49999936  0.00000000  0.49999936  1
  Br  Br5  1  0.24999992  0.74999928  0.49999936  1
  Br  Br6  1  0.74999928  0.24999992  0.49999936  1
  O  O7  1  0.74980040  0.74980040  0.49960112  1
  O  O8  1  0.25019880  0.25019880  0.50039759  1
  O  O9  1  0.74980040  0.25019928  0.00000000  1
  O  O10  1  0.25019928  0.74980040  0.00000000  1
