# generated using pymatgen
data_K4Nb11Al2O20F
_symmetry_space_group_name_H-M   'P 1'
_cell_length_a   8.97207863
_cell_length_b   8.97207863
_cell_length_c   8.97207863
_cell_angle_alpha   120.56970052
_cell_angle_beta   120.56970052
_cell_angle_gamma   89.01604993
_symmetry_Int_Tables_number   1
_chemical_formula_structural   K4Nb11Al2O20F
_chemical_formula_sum   'K4 Nb11 Al2 O20 F1'
_cell_volume   506.21948803
_cell_formula_units_Z   1
loop_
 _symmetry_equiv_pos_site_id
 _symmetry_equiv_pos_as_xyz
  1  'x, y, z'
loop_
 _atom_site_type_symbol
 _atom_site_label
 _atom_site_symmetry_multiplicity
 _atom_site_fract_x
 _atom_site_fract_y
 _atom_site_fract_z
 _atom_site_occupancy
  K  K0  1  0.19191820  0.49999948  0.69191767  1
  K  K1  1  0.80808142  0.50000014  0.30808128  1
  K  K2  1  0.49999948  0.19191820  0.69191767  1
  K  K3  1  0.50000014  0.80808142  0.30808128  1
  Nb  Nb4  1  0.99934105  0.67584457  0.00000000  1
  Nb  Nb5  1  0.32415570  0.32415570  0.32349748  1
  Nb  Nb6  1  0.00065856  0.00065856  0.67650147  1
  Nb  Nb7  1  0.00000000  0.00000000  0.00000000  1
  Nb  Nb8  1  0.68362856  0.68362856  0.00000000  1
  Nb  Nb9  1  0.31637172  0.31637172  0.00000000  1
  Nb  Nb10  1  0.67584391  0.67584391  0.67650147  1
  Nb  Nb11  1  0.99934105  0.99934105  0.32349748  1
  Nb  Nb12  1  0.00065922  0.32415570  0.00000000  1
  Nb  Nb13  1  0.67584457  0.99934105  0.00000000  1
  Nb  Nb14  1  0.32415570  0.00065922  0.00000000  1
  Al  Al15  1  0.25000007  0.74999954  0.49999948  1
  Al  Al16  1  0.74999954  0.25000007  0.49999948  1
  O  O17  1  0.82978353  0.17021674  0.00000000  1
  O  O18  1  0.17021674  0.82978353  0.00000000  1
  O  O19  1  0.16579761  0.50525470  0.33945809  1
  O  O20  1  0.16579761  0.82633847  0.66054086  1
  O  O21  1  0.82633847  0.16579761  0.66054086  1
  O  O22  1  0.50525470  0.16579761  0.33945809  1
  O  O23  1  0.83420200  0.17366114  0.33945809  1
  O  O24  1  0.83420200  0.49474491  0.66054086  1
  O  O25  1  0.17366114  0.83420200  0.33945809  1
  O  O26  1  0.83931167  0.83931167  0.33101137  1
  O  O27  1  0.16068794  0.16068794  0.66898759  1
  O  O28  1  0.49169997  0.49169997  0.33101137  1
  O  O29  1  0.49169997  0.16068860  0.00000000  1
  O  O30  1  0.16068860  0.49169997  0.00000000  1
  O  O31  1  0.83931167  0.50830031  0.00000000  1
  O  O32  1  0.50830031  0.83931167  0.00000000  1
  O  O33  1  0.50829965  0.50829965  0.66898759  1
  O  O34  1  0.17021608  0.17021608  0.34043216  1
  O  O35  1  0.49474491  0.83420200  0.66054086  1
  O  O36  1  0.82978353  0.82978353  0.65956679  1
  F  F37  1  0.50000014  0.50000014  0.00000000  1
