# generated using pymatgen
data_LaNiGe2
_symmetry_space_group_name_H-M   'P 1'
_cell_length_a   8.74151383
_cell_length_b   8.74151383
_cell_length_c   4.27448652
_cell_angle_alpha   90.00000000
_cell_angle_beta   90.00000000
_cell_angle_gamma   151.35754994
_symmetry_Int_Tables_number   1
_chemical_formula_structural   LaNiGe2
_chemical_formula_sum   'La2 Ni2 Ge4'
_cell_volume   156.56797375
_cell_formula_units_Z   2
loop_
 _symmetry_equiv_pos_site_id
 _symmetry_equiv_pos_as_xyz
  1  'x, y, z'
loop_
 _atom_site_type_symbol
 _atom_site_label
 _atom_site_symmetry_multiplicity
 _atom_site_fract_x
 _atom_site_fract_y
 _atom_site_fract_z
 _atom_site_occupancy
  La  La0  1  0.89138215  0.10861643  0.75000061  1
  La  La1  1  0.10861643  0.89138215  0.25000020  1
  Ni  Ni2  1  0.68242053  0.31757806  0.75000061  1
  Ni  Ni3  1  0.31757806  0.68242053  0.25000020  1
  Ge  Ge4  1  0.54312987  0.45686872  0.75000061  1
  Ge  Ge5  1  0.45686872  0.54312987  0.25000020  1
  Ge  Ge6  1  0.25019155  0.74980703  0.75000061  1
  Ge  Ge7  1  0.74980703  0.25019155  0.25000020  1
