# generated using pymatgen
data_HoPt
_symmetry_space_group_name_H-M   'P 1'
_cell_length_a   4.49062385
_cell_length_b   5.54687291
_cell_length_c   6.97923936
_cell_angle_alpha   90.00000000
_cell_angle_beta   90.00000000
_cell_angle_gamma   90.00000000
_symmetry_Int_Tables_number   1
_chemical_formula_structural   HoPt
_chemical_formula_sum   'Ho4 Pt4'
_cell_volume   173.84531346
_cell_formula_units_Z   4
loop_
 _symmetry_equiv_pos_site_id
 _symmetry_equiv_pos_as_xyz
  1  'x, y, z'
loop_
 _atom_site_type_symbol
 _atom_site_label
 _atom_site_symmetry_multiplicity
 _atom_site_fract_x
 _atom_site_fract_y
 _atom_site_fract_z
 _atom_site_occupancy
  Ho  Ho0  1  0.74999936  0.85675053  0.18245616  1
  Ho  Ho1  1  0.24999979  0.35675079  0.31754388  1
  Ho  Ho2  1  0.24999979  0.14324895  0.81754393  1
  Ho  Ho3  1  0.74999936  0.64324868  0.68245621  1
  Pt  Pt4  1  0.74999936  0.34043878  0.04489651  1
  Pt  Pt5  1  0.24999979  0.84043852  0.45510354  1
  Pt  Pt6  1  0.24999979  0.65956070  0.95510359  1
  Pt  Pt7  1  0.74999936  0.15956096  0.54489655  1
