# generated using pymatgen
data_BaCaTi4
_symmetry_space_group_name_H-M   'P 1'
_cell_length_a   6.01907226
_cell_length_b   6.01907226
_cell_length_c   6.01907226
_cell_angle_alpha   60.00000000
_cell_angle_beta   60.00000000
_cell_angle_gamma   60.00000000
_symmetry_Int_Tables_number   1
_chemical_formula_structural   BaCaTi4
_chemical_formula_sum   'Ba1 Ca1 Ti4'
_cell_volume   154.19620124
_cell_formula_units_Z   1
loop_
 _symmetry_equiv_pos_site_id
 _symmetry_equiv_pos_as_xyz
  1  'x, y, z'
loop_
 _atom_site_type_symbol
 _atom_site_label
 _atom_site_symmetry_multiplicity
 _atom_site_fract_x
 _atom_site_fract_y
 _atom_site_fract_z
 _atom_site_occupancy
  Ba  Ba0  1  0.25000019  0.25000019  0.25000019  1
  Ca  Ca1  1  0.00000000  0.00000000  0.00000000  1
  Ti  Ti2  1  0.08722382  0.63759256  0.63759256  1
  Ti  Ti3  1  0.63759256  0.63759256  0.63759256  1
  Ti  Ti4  1  0.63759256  0.08722382  0.63759256  1
  Ti  Ti5  1  0.63759256  0.63759256  0.08722382  1
