# generated using pymatgen
data_YSnPt
_symmetry_space_group_name_H-M   'P 1'
_cell_length_a   7.53231066
_cell_length_b   7.53231066
_cell_length_c   4.01103054
_cell_angle_alpha   90.00000000
_cell_angle_beta   90.00000000
_cell_angle_gamma   120.00003462
_symmetry_Int_Tables_number   1
_chemical_formula_structural   YSnPt
_chemical_formula_sum   'Y3 Sn3 Pt3'
_cell_volume   197.08015503
_cell_formula_units_Z   3
loop_
 _symmetry_equiv_pos_site_id
 _symmetry_equiv_pos_as_xyz
  1  'x, y, z'
loop_
 _atom_site_type_symbol
 _atom_site_label
 _atom_site_symmetry_multiplicity
 _atom_site_fract_x
 _atom_site_fract_y
 _atom_site_fract_z
 _atom_site_occupancy
  Y  Y0  1  0.59598113  0.00000040  0.49999993  1
  Y  Y1  1  0.00000040  0.59598113  0.49999993  1
  Y  Y2  1  0.40401779  0.40401779  0.49999993  1
  Sn  Sn3  1  0.26027517  0.99999892  0.00000000  1
  Sn  Sn4  1  0.99999892  0.26027517  0.00000000  1
  Sn  Sn5  1  0.73972352  0.73972352  0.00000000  1
  Pt  Pt6  1  0.33333315  0.66666728  0.00000000  1
  Pt  Pt7  1  0.66666728  0.33333315  0.00000000  1
  Pt  Pt8  1  0.99999817  0.99999817  0.49999993  1
