# generated using pymatgen
data_Al5BO9
_symmetry_space_group_name_H-M   'P 1'
_cell_length_a   8.08395531
_cell_length_b   8.08395531
_cell_length_c   7.76092851
_cell_angle_alpha   90.00000000
_cell_angle_beta   90.00000000
_cell_angle_gamma   138.50119776
_symmetry_Int_Tables_number   1
_chemical_formula_structural   Al5BO9
_chemical_formula_sum   'Al10 B2 O18'
_cell_volume   336.05920875
_cell_formula_units_Z   2
loop_
 _symmetry_equiv_pos_site_id
 _symmetry_equiv_pos_as_xyz
  1  'x, y, z'
loop_
 _atom_site_type_symbol
 _atom_site_label
 _atom_site_symmetry_multiplicity
 _atom_site_fract_x
 _atom_site_fract_y
 _atom_site_fract_z
 _atom_site_occupancy
  Al  Al0  1  0.86410590  0.63250596  0.33230352  1
  Al  Al1  1  0.29705845  0.70294019  0.16643294  1
  Al  Al2  1  0.55613597  0.44386267  0.01662652  1
  Al  Al3  1  0.44386267  0.55613597  0.51662662  1
  Al  Al4  1  0.74472248  0.25527616  0.01854531  1
  Al  Al5  1  0.70294019  0.29705845  0.66643303  1
  Al  Al6  1  0.36749268  0.13589274  0.33230352  1
  Al  Al7  1  0.63250596  0.86410590  0.83230361  1
  Al  Al8  1  0.13589274  0.36749268  0.83230361  1
  Al  Al9  1  0.25527616  0.74472248  0.51854541  1
  B  B10  1  0.01552928  0.98446935  0.05422240  1
  B  B11  1  0.98446935  0.01552928  0.55422250  1
  O  O12  1  0.95396550  0.04603314  0.92565831  1
  O  O13  1  0.16218255  0.25773852  0.61853627  1
  O  O14  1  0.83781609  0.74226012  0.11853618  1
  O  O15  1  0.80898851  0.19101013  0.76795249  1
  O  O16  1  0.19101013  0.80898851  0.26795239  1
  O  O17  1  0.64813732  0.35186132  0.87062878  1
  O  O18  1  0.35186132  0.64813732  0.37062868  1
  O  O19  1  0.04603314  0.95396550  0.42565822  1
  O  O20  1  0.93281984  0.55332046  0.53305332  1
  O  O21  1  0.45453175  0.54546689  0.90459708  1
  O  O22  1  0.44667818  0.06717880  0.53305332  1
  O  O23  1  0.55332046  0.93281984  0.03305322  1
  O  O24  1  0.06717880  0.44667818  0.03305322  1
  O  O25  1  0.74226012  0.83781609  0.61853627  1
  O  O26  1  0.66957290  0.33042574  0.20165127  1
  O  O27  1  0.33042574  0.66957290  0.70165137  1
  O  O28  1  0.54546689  0.45453175  0.40459698  1
  O  O29  1  0.25773852  0.16218255  0.11853618  1
