# generated using pymatgen
data_BaGe(PO4)2
_symmetry_space_group_name_H-M   'P 1'
_cell_length_a   4.73509773
_cell_length_b   4.73509773
_cell_length_c   7.76044536
_cell_angle_alpha   85.33659230
_cell_angle_beta   85.33659230
_cell_angle_gamma   65.70639510
_symmetry_Int_Tables_number   1
_chemical_formula_structural   BaGe(PO4)2
_chemical_formula_sum   'Ba1 Ge1 P2 O8'
_cell_volume   157.84597389
_cell_formula_units_Z   1
loop_
 _symmetry_equiv_pos_site_id
 _symmetry_equiv_pos_as_xyz
  1  'x, y, z'
loop_
 _atom_site_type_symbol
 _atom_site_label
 _atom_site_symmetry_multiplicity
 _atom_site_fract_x
 _atom_site_fract_y
 _atom_site_fract_z
 _atom_site_occupancy
  Ba  Ba0  1  0.00000024  0.00000024  0.50000015  1
  Ge  Ge1  1  0.00000000  0.00000000  0.00000000  1
  P  P2  1  0.62767688  0.62767688  0.19657638  1
  P  P3  1  0.37232374  0.37232374  0.80342304  1
  O  O4  1  0.76681370  0.76681370  0.04535506  1
  O  O5  1  0.23318691  0.23318691  0.95464437  1
  O  O6  1  0.68124458  0.68124458  0.37981485  1
  O  O7  1  0.31875603  0.31875603  0.62018458  1
  O  O8  1  0.76062857  0.26761666  0.17830077  1
  O  O9  1  0.73238396  0.23937205  0.82169865  1
  O  O10  1  0.23937205  0.73238396  0.82169865  1
  O  O11  1  0.26761666  0.76062857  0.17830077  1
