# generated using pymatgen
data_ErFe2
_symmetry_space_group_name_H-M   'P 1'
_cell_length_a   4.93270295
_cell_length_b   4.93285329
_cell_length_c   8.31725755
_cell_angle_alpha   90.00000000
_cell_angle_beta   90.00000000
_cell_angle_gamma   119.99899182
_symmetry_Int_Tables_number   1
_chemical_formula_structural   ErFe2
_chemical_formula_sum   'Er4 Fe8'
_cell_volume   175.26627498
_cell_formula_units_Z   4
loop_
 _symmetry_equiv_pos_site_id
 _symmetry_equiv_pos_as_xyz
  1  'x, y, z'
loop_
 _atom_site_type_symbol
 _atom_site_label
 _atom_site_symmetry_multiplicity
 _atom_site_fract_x
 _atom_site_fract_y
 _atom_site_fract_z
 _atom_site_occupancy
  Er  Er0  1  0.66666567  0.33333040  0.06532911  1
  Er  Er1  1  0.33333446  0.66666814  0.56532926  1
  Er  Er2  1  0.33333446  0.66666814  0.93467118  1
  Er  Er3  1  0.66666567  0.33333040  0.43467103  1
  Fe  Fe4  1  0.00000000  0.00000000  0.00000000  1
  Fe  Fe5  1  0.00000000  0.00000000  0.50000015  1
  Fe  Fe6  1  0.66227053  0.83113248  0.25000007  1
  Fe  Fe7  1  0.16886312  0.83113286  0.25000007  1
  Fe  Fe8  1  0.16880783  0.33761527  0.25000007  1
  Fe  Fe9  1  0.33772960  0.16886605  0.75000022  1
  Fe  Fe10  1  0.83113700  0.16886568  0.75000022  1
  Fe  Fe11  1  0.83119229  0.66238327  0.75000022  1
