# generated using pymatgen
data_Be2PdSe
_symmetry_space_group_name_H-M   'P 1'
_cell_length_a   5.53034041
_cell_length_b   5.53034041
_cell_length_c   5.53034041
_cell_angle_alpha   145.03835294
_cell_angle_beta   145.03835294
_cell_angle_gamma   50.27737352
_symmetry_Int_Tables_number   1
_chemical_formula_structural   Be2PdSe
_chemical_formula_sum   'Be2 Pd1 Se1'
_cell_volume   55.26632727
_cell_formula_units_Z   1
loop_
 _symmetry_equiv_pos_site_id
 _symmetry_equiv_pos_as_xyz
  1  'x, y, z'
loop_
 _atom_site_type_symbol
 _atom_site_label
 _atom_site_symmetry_multiplicity
 _atom_site_fract_x
 _atom_site_fract_y
 _atom_site_fract_z
 _atom_site_occupancy
  Be  Be0  1  0.00000000  0.00000000  0.00000000  1
  Be  Be1  1  0.25000007  0.75000006  0.49999999  1
  Pd  Pd2  1  0.50000014  0.50000014  0.00000000  1
  Se  Se3  1  0.75000006  0.25000007  0.49999999  1
