# generated using pymatgen
data_V3GaN
_symmetry_space_group_name_H-M   'P 1'
_cell_length_a   5.31124104
_cell_length_b   5.31124104
_cell_length_c   7.89141455
_cell_angle_alpha   90.00000000
_cell_angle_beta   90.00000000
_cell_angle_gamma   147.46937732
_symmetry_Int_Tables_number   1
_chemical_formula_structural   V3GaN
_chemical_formula_sum   'V6 Ga2 N2'
_cell_volume   119.70920307
_cell_formula_units_Z   2
loop_
 _symmetry_equiv_pos_site_id
 _symmetry_equiv_pos_as_xyz
  1  'x, y, z'
loop_
 _atom_site_type_symbol
 _atom_site_label
 _atom_site_symmetry_multiplicity
 _atom_site_fract_x
 _atom_site_fract_y
 _atom_site_fract_z
 _atom_site_occupancy
  V  V0  1  0.03294677  0.96705193  0.74999957  1
  V  V1  1  0.96705193  0.03294677  0.24999986  1
  V  V2  1  0.37369375  0.62630495  0.95624390  1
  V  V3  1  0.62630495  0.37369375  0.45624418  1
  V  V4  1  0.37369375  0.62630495  0.54375524  1
  V  V5  1  0.62630495  0.37369375  0.04375553  1
  Ga  Ga6  1  0.74172548  0.25827322  0.74999957  1
  Ga  Ga7  1  0.25827322  0.74172548  0.24999986  1
  N  N8  1  0.00000000  0.00000000  0.00000000  1
  N  N9  1  0.00000000  0.00000000  0.49999971  1
