# generated using pymatgen
data_BH2N
_symmetry_space_group_name_H-M   'P 1'
_cell_length_a   5.27045415
_cell_length_b   5.27045415
_cell_length_c   16.10506077
_cell_angle_alpha   90.00000000
_cell_angle_beta   90.00000000
_cell_angle_gamma   90.00000000
_symmetry_Int_Tables_number   1
_chemical_formula_structural   BH2N
_chemical_formula_sum   'B12 H24 N12'
_cell_volume   447.36133648
_cell_formula_units_Z   12
loop_
 _symmetry_equiv_pos_site_id
 _symmetry_equiv_pos_as_xyz
  1  'x, y, z'
loop_
 _atom_site_type_symbol
 _atom_site_label
 _atom_site_symmetry_multiplicity
 _atom_site_fract_x
 _atom_site_fract_y
 _atom_site_fract_z
 _atom_site_occupancy
  B  B0  1  0.33981332  0.56049335  0.05908623  1
  B  B1  1  0.34259817  0.65740104  0.74999996  1
  B  B2  1  0.84259778  0.84259778  0.49999998  1
  B  B3  1  0.15740144  0.15740144  0.00000000  1
  B  B4  1  0.43950586  0.66018589  0.44091374  1
  B  B5  1  0.56049335  0.33981332  0.94091372  1
  B  B6  1  0.65740104  0.34259817  0.24999999  1
  B  B7  1  0.16018629  0.06049374  0.69091373  1
  B  B8  1  0.06049374  0.16018629  0.30908622  1
  B  B9  1  0.93950547  0.83981293  0.80908620  1
  B  B10  1  0.66018589  0.43950586  0.55908621  1
  B  B11  1  0.83981293  0.93950547  0.19091375  1
  H  H12  1  0.12677184  0.50418973  0.84895116  1
  H  H13  1  0.87322738  0.49580949  0.34895119  1
  H  H14  1  0.49580949  0.87322738  0.65104877  1
  H  H15  1  0.50418973  0.12677184  0.15104879  1
  H  H16  1  0.37322777  0.00419012  0.90104875  1
  H  H17  1  -0.00384949  -0.00384949  0.00000000  1
  H  H18  1  0.00384949  0.00384949  0.49999998  1
  H  H19  1  0.50384910  0.49615011  0.74999996  1
  H  H20  1  0.49615011  0.50384910  0.24999999  1
  H  H21  1  0.99580909  0.62677144  0.59895117  1
  H  H22  1  0.62677144  0.99580909  0.40104878  1
  H  H23  1  0.00419012  0.37322777  0.09895120  1
  H  H24  1  0.26752550  0.67151137  0.39232962  1
  H  H25  1  0.73247371  0.32848784  0.89232959  1
  H  H26  1  0.82848745  0.76752511  0.14232963  1
  H  H27  1  0.17151176  0.23247410  0.64232961  1
  H  H28  1  0.23247410  0.17151176  0.35767035  1
  H  H29  1  0.76752511  0.82848745  0.85767032  1
  H  H30  1  0.67151137  0.26752550  0.60767033  1
  H  H31  1  0.32848784  0.73247371  0.10767036  1
  H  H32  1  0.17872536  0.82127386  0.24999999  1
  H  H33  1  0.82127386  0.17872536  0.74999996  1
  H  H34  1  0.32127425  0.32127425  0.49999998  1
  H  H35  1  0.67872496  0.67872496  0.00000000  1
  N  N36  1  0.65240574  0.13695611  0.19171172  1
  N  N37  1  0.34759347  0.86304310  0.69171169  1
  N  N38  1  0.86304310  0.34759347  0.30828826  1
  N  N39  1  0.13695611  0.65240574  0.80828824  1
  N  N40  1  0.84759308  0.63695571  0.55828825  1
  N  N41  1  0.54188910  0.54188910  0.00000000  1
  N  N42  1  0.04188950  0.95810972  0.24999999  1
  N  N43  1  0.95810972  0.04188950  0.74999996  1
  N  N44  1  0.45811011  0.45811011  0.49999998  1
  N  N45  1  0.36304350  0.15240613  0.94171168  1
  N  N46  1  0.15240613  0.36304350  0.05828827  1
  N  N47  1  0.63695571  0.84759308  0.44171170  1
