# generated using pymatgen
data_BeIr4Pt
_symmetry_space_group_name_H-M   'P 1'
_cell_length_a   5.13317984
_cell_length_b   5.13317984
_cell_length_c   5.13317984
_cell_angle_alpha   60.00000000
_cell_angle_beta   60.00000000
_cell_angle_gamma   60.00000000
_symmetry_Int_Tables_number   1
_chemical_formula_structural   BeIr4Pt
_chemical_formula_sum   'Be1 Ir4 Pt1'
_cell_volume   95.64107366
_cell_formula_units_Z   1
loop_
 _symmetry_equiv_pos_site_id
 _symmetry_equiv_pos_as_xyz
  1  'x, y, z'
loop_
 _atom_site_type_symbol
 _atom_site_label
 _atom_site_symmetry_multiplicity
 _atom_site_fract_x
 _atom_site_fract_y
 _atom_site_fract_z
 _atom_site_occupancy
  Be  Be0  1  0.00000000  0.00000000  0.00000000  1
  Ir  Ir1  1  0.37486063  0.37486063  0.37486063  1
  Ir  Ir2  1  0.37486063  0.87541916  0.37486063  1
  Ir  Ir3  1  0.37486063  0.37486063  0.87541916  1
  Ir  Ir4  1  0.87541916  0.37486063  0.37486063  1
  Pt  Pt5  1  0.75000077  0.75000077  0.75000077  1
