# generated using pymatgen
data_BeGeW
_symmetry_space_group_name_H-M   'P 1'
_cell_length_a   6.68072705
_cell_length_b   6.68072705
_cell_length_c   6.68072705
_cell_angle_alpha   156.73777213
_cell_angle_beta   156.73777213
_cell_angle_gamma   33.13196818
_symmetry_Int_Tables_number   1
_chemical_formula_structural   BeGeW
_chemical_formula_sum   'Be1 Ge1 W1'
_cell_volume   46.46683881
_cell_formula_units_Z   1
loop_
 _symmetry_equiv_pos_site_id
 _symmetry_equiv_pos_as_xyz
  1  'x, y, z'
loop_
 _atom_site_type_symbol
 _atom_site_label
 _atom_site_symmetry_multiplicity
 _atom_site_fract_x
 _atom_site_fract_y
 _atom_site_fract_z
 _atom_site_occupancy
  Be  Be0  1  0.02404133  0.02404133  0.00000000  1
  Ge  Ge1  1  0.32366396  0.32366396  0.00000000  1
  W  W2  1  0.65229415  0.65229415  0.00000000  1
