# generated using pymatgen
data_BePdSe2
_symmetry_space_group_name_H-M   'P 1'
_cell_length_a   3.10034341
_cell_length_b   3.10034341
_cell_length_c   7.38729322
_cell_angle_alpha   90.00000000
_cell_angle_beta   90.00000000
_cell_angle_gamma   90.00000000
_symmetry_Int_Tables_number   1
_chemical_formula_structural   BePdSe2
_chemical_formula_sum   'Be1 Pd1 Se2'
_cell_volume   71.00761754
_cell_formula_units_Z   1
loop_
 _symmetry_equiv_pos_site_id
 _symmetry_equiv_pos_as_xyz
  1  'x, y, z'
loop_
 _atom_site_type_symbol
 _atom_site_label
 _atom_site_symmetry_multiplicity
 _atom_site_fract_x
 _atom_site_fract_y
 _atom_site_fract_z
 _atom_site_occupancy
  Be  Be0  1  0.00000000  0.00000000  0.53688657  1
  Pd  Pd1  1  0.49999945  0.49999945  0.68861185  1
  Se  Se2  1  0.00000000  0.00000000  0.92332298  1
  Se  Se3  1  0.49999945  0.49999945  0.35117751  1
