# generated using pymatgen
data_BeFe2Co
_symmetry_space_group_name_H-M   'P 1'
_cell_length_a   2.78632816
_cell_length_b   2.78632816
_cell_length_c   5.30902461
_cell_angle_alpha   90.00000000
_cell_angle_beta   90.00000000
_cell_angle_gamma   90.00000000
_symmetry_Int_Tables_number   1
_chemical_formula_structural   BeFe2Co
_chemical_formula_sum   'Be1 Fe2 Co1'
_cell_volume   41.21727406
_cell_formula_units_Z   1
loop_
 _symmetry_equiv_pos_site_id
 _symmetry_equiv_pos_as_xyz
  1  'x, y, z'
loop_
 _atom_site_type_symbol
 _atom_site_label
 _atom_site_symmetry_multiplicity
 _atom_site_fract_x
 _atom_site_fract_y
 _atom_site_fract_z
 _atom_site_occupancy
  Be  Be0  1  0.00000000  0.00000000  0.50581348  1
  Fe  Fe1  1  0.00000000  0.00000000  0.99773042  1
  Fe  Fe2  1  0.50000033  0.50000033  0.26778519  1
  Co  Co3  1  0.50000033  0.50000033  0.72866774  1
