# generated using pymatgen
data_Al3Pd5
_symmetry_space_group_name_H-M   'P 1'
_cell_length_a   4.07253660
_cell_length_b   5.43289285
_cell_length_c   10.58366695
_cell_angle_alpha   90.00000000
_cell_angle_beta   90.00000000
_cell_angle_gamma   90.00000000
_symmetry_Int_Tables_number   1
_chemical_formula_structural   Al3Pd5
_chemical_formula_sum   'Al6 Pd10'
_cell_volume   234.17056333
_cell_formula_units_Z   2
loop_
 _symmetry_equiv_pos_site_id
 _symmetry_equiv_pos_as_xyz
  1  'x, y, z'
loop_
 _atom_site_type_symbol
 _atom_site_label
 _atom_site_symmetry_multiplicity
 _atom_site_fract_x
 _atom_site_fract_y
 _atom_site_fract_z
 _atom_site_occupancy
  Al  Al0  1  0.00000000  0.00000000  0.00000000  1
  Al  Al1  1  0.00000000  0.49999974  0.50000014  1
  Al  Al2  1  0.50000042  0.15827043  0.64339535  1
  Al  Al3  1  0.50000042  0.84172904  0.35660494  1
  Al  Al4  1  0.50000042  0.34172930  0.14339520  1
  Al  Al5  1  0.50000042  0.65827017  0.85660508  1
  Pd  Pd6  1  0.50000042  0.18645501  0.89463830  1
  Pd  Pd7  1  0.50000042  0.81354447  0.10536199  1
  Pd  Pd8  1  0.50000042  0.31354473  0.39463815  1
  Pd  Pd9  1  0.50000042  0.68645474  0.60536214  1
  Pd  Pd10  1  0.00000000  0.00000000  0.50000014  1
  Pd  Pd11  1  0.00000000  0.49999974  0.00000000  1
  Pd  Pd12  1  0.00000000  0.90033628  0.76856053  1
  Pd  Pd13  1  0.00000000  0.09966320  0.23143976  1
  Pd  Pd14  1  0.00000000  0.59966294  0.26856038  1
  Pd  Pd15  1  0.00000000  0.40033654  0.73143990  1
