# generated using pymatgen
data_Sr2BeZn
_symmetry_space_group_name_H-M   'P 1'
_cell_length_a   5.39261378
_cell_length_b   5.39261378
_cell_length_c   5.39261378
_cell_angle_alpha   119.97135504
_cell_angle_beta   119.97135504
_cell_angle_gamma   90.04962170
_symmetry_Int_Tables_number   1
_chemical_formula_structural   Sr2BeZn
_chemical_formula_sum   'Sr2 Be1 Zn1'
_cell_volume   110.93555776
_cell_formula_units_Z   1
loop_
 _symmetry_equiv_pos_site_id
 _symmetry_equiv_pos_as_xyz
  1  'x, y, z'
loop_
 _atom_site_type_symbol
 _atom_site_label
 _atom_site_symmetry_multiplicity
 _atom_site_fract_x
 _atom_site_fract_y
 _atom_site_fract_z
 _atom_site_occupancy
  Sr  Sr0  1  0.00000000  0.00000000  0.00000000  1
  Sr  Sr1  1  0.49999971  0.49999971  0.00000000  1
  Be  Be2  1  0.74999907  0.24999986  0.49999922  1
  Zn  Zn3  1  0.24999986  0.74999907  0.49999922  1
