# generated using pymatgen
data_SrBeW2
_symmetry_space_group_name_H-M   'P 1'
_cell_length_a   2.77018038
_cell_length_b   2.77018038
_cell_length_c   9.09431329
_cell_angle_alpha   90.00000000
_cell_angle_beta   90.00000000
_cell_angle_gamma   90.00000000
_symmetry_Int_Tables_number   1
_chemical_formula_structural   SrBeW2
_chemical_formula_sum   'Sr1 Be1 W2'
_cell_volume   69.78884473
_cell_formula_units_Z   1
loop_
 _symmetry_equiv_pos_site_id
 _symmetry_equiv_pos_as_xyz
  1  'x, y, z'
loop_
 _atom_site_type_symbol
 _atom_site_label
 _atom_site_symmetry_multiplicity
 _atom_site_fract_x
 _atom_site_fract_y
 _atom_site_fract_z
 _atom_site_occupancy
  Sr  Sr0  1  0.49999993  0.49999993  0.72536614  1
  Be  Be1  1  0.00000000  0.00000000  0.45831063  1
  W  W2  1  0.00000000  0.00000000  0.03371073  1
  W  W3  1  0.49999993  0.49999993  0.28261197  1
