# generated using pymatgen
data_BaLiTl2
_symmetry_space_group_name_H-M   'P 1'
_cell_length_a   5.62906543
_cell_length_b   5.62906543
_cell_length_c   4.11622092
_cell_angle_alpha   90.00000000
_cell_angle_beta   90.00000000
_cell_angle_gamma   90.00000000
_symmetry_Int_Tables_number   1
_chemical_formula_structural   BaLiTl2
_chemical_formula_sum   'Ba1 Li1 Tl2'
_cell_volume   130.42813073
_cell_formula_units_Z   1
loop_
 _symmetry_equiv_pos_site_id
 _symmetry_equiv_pos_as_xyz
  1  'x, y, z'
loop_
 _atom_site_type_symbol
 _atom_site_label
 _atom_site_symmetry_multiplicity
 _atom_site_fract_x
 _atom_site_fract_y
 _atom_site_fract_z
 _atom_site_occupancy
  Ba  Ba0  1  0.50000041  0.50000041  0.49999989  1
  Li  Li1  1  0.00000000  0.00000000  0.49999989  1
  Tl  Tl2  1  0.50000041  0.00000000  0.00000000  1
  Tl  Tl3  1  0.00000000  0.50000041  0.00000000  1
