# generated using pymatgen
data_BaYFe4O7
_symmetry_space_group_name_H-M   'P 1'
_cell_length_a   6.36651037
_cell_length_b   6.36651037
_cell_length_c   6.36651037
_cell_angle_alpha   121.00437393
_cell_angle_beta   121.00437393
_cell_angle_gamma   88.26900203
_symmetry_Int_Tables_number   1
_chemical_formula_structural   BaYFe4O7
_chemical_formula_sum   'Ba1 Y1 Fe4 O7'
_cell_volume   179.61005377
_cell_formula_units_Z   1
loop_
 _symmetry_equiv_pos_site_id
 _symmetry_equiv_pos_as_xyz
  1  'x, y, z'
loop_
 _atom_site_type_symbol
 _atom_site_label
 _atom_site_symmetry_multiplicity
 _atom_site_fract_x
 _atom_site_fract_y
 _atom_site_fract_z
 _atom_site_occupancy
  Ba  Ba0  1  0.75000030  0.25000006  0.50000034  1
  Y  Y1  1  0.00000000  0.00000000  0.00000000  1
  Fe  Fe2  1  0.85298186  0.63345811  0.25348040  1
  Fe  Fe3  1  0.37997793  0.59950178  0.74652017  1
  Fe  Fe4  1  0.40049880  0.14701850  0.78047683  1
  Fe  Fe5  1  0.36654193  0.62002233  0.21952375  1
  O  O6  1  0.17845891  0.68137837  0.90971511  1
  O  O7  1  0.77166352  0.26874416  0.09028547  1
  O  O8  1  0.73125588  0.82154135  0.50291936  1
  O  O9  1  0.31862221  0.22833684  0.49708122  1
  O  O10  1  0.24715349  0.24715349  0.00000000  1
  O  O11  1  0.75284655  0.75284655  0.00000000  1
  O  O12  1  0.24999996  0.75000030  0.50000024  1
