# generated using pymatgen
data_Be2CdBr
_symmetry_space_group_name_H-M   'P 1'
_cell_length_a   5.26690436
_cell_length_b   5.26690436
_cell_length_c   5.26690436
_cell_angle_alpha   133.50855701
_cell_angle_beta   133.50855701
_cell_angle_gamma   67.85661071
_symmetry_Int_Tables_number   1
_chemical_formula_structural   Be2CdBr
_chemical_formula_sum   'Be2 Cd1 Br1'
_cell_volume   75.53466967
_cell_formula_units_Z   1
loop_
 _symmetry_equiv_pos_site_id
 _symmetry_equiv_pos_as_xyz
  1  'x, y, z'
loop_
 _atom_site_type_symbol
 _atom_site_label
 _atom_site_symmetry_multiplicity
 _atom_site_fract_x
 _atom_site_fract_y
 _atom_site_fract_z
 _atom_site_occupancy
  Be  Be0  1  0.00000000  0.00000000  0.00000000  1
  Be  Be1  1  0.49999959  0.49999959  0.00000000  1
  Cd  Cd2  1  0.75000057  0.24999980  0.50000078  1
  Br  Br3  1  0.24999980  0.75000057  0.50000078  1
