# generated using pymatgen
data_La(BC)2
_symmetry_space_group_name_H-M   'P 1'
_cell_length_a   5.39976186
_cell_length_b   5.39976186
_cell_length_c   3.98933437
_cell_angle_alpha   90.00000000
_cell_angle_beta   90.00000000
_cell_angle_gamma   90.00000000
_symmetry_Int_Tables_number   1
_chemical_formula_structural   La(BC)2
_chemical_formula_sum   'La2 B4 C4'
_cell_volume   116.31873041
_cell_formula_units_Z   2
loop_
 _symmetry_equiv_pos_site_id
 _symmetry_equiv_pos_as_xyz
  1  'x, y, z'
loop_
 _atom_site_type_symbol
 _atom_site_label
 _atom_site_symmetry_multiplicity
 _atom_site_fract_x
 _atom_site_fract_y
 _atom_site_fract_z
 _atom_site_occupancy
  La  La0  1  0.00000000  0.00000000  0.00000000  1
  La  La1  1  0.49999983  0.49999983  0.00000000  1
  B  B2  1  0.86160324  0.36160341  0.49999945  1
  B  B3  1  0.13839642  0.63839625  0.49999945  1
  B  B4  1  0.36160341  0.13839642  0.49999945  1
  B  B5  1  0.63839625  0.86160324  0.49999945  1
  C  C6  1  0.66066362  0.16066380  0.49999945  1
  C  C7  1  0.33933603  0.83933586  0.49999945  1
  C  C8  1  0.16066380  0.33933603  0.49999945  1
  C  C9  1  0.83933586  0.66066362  0.49999945  1
