# generated using pymatgen
data_TiAsP2
_symmetry_space_group_name_H-M   'P 1'
_cell_length_a   4.51783051
_cell_length_b   4.51783051
_cell_length_c   4.51783051
_cell_angle_alpha   60.00000000
_cell_angle_beta   60.00000000
_cell_angle_gamma   60.00000000
_symmetry_Int_Tables_number   1
_chemical_formula_structural   TiAsP2
_chemical_formula_sum   'Ti1 As1 P2'
_cell_volume   65.20408492
_cell_formula_units_Z   1
loop_
 _symmetry_equiv_pos_site_id
 _symmetry_equiv_pos_as_xyz
  1  'x, y, z'
loop_
 _atom_site_type_symbol
 _atom_site_label
 _atom_site_symmetry_multiplicity
 _atom_site_fract_x
 _atom_site_fract_y
 _atom_site_fract_z
 _atom_site_occupancy
  Ti  Ti0  1  0.75000033  0.75000033  0.75000033  1
  As  As1  1  0.50000022  0.50000022  0.50000022  1
  P  P2  1  0.00000000  0.00000000  0.00000000  1
  P  P3  1  0.25000011  0.25000011  0.25000011  1
