# generated using pymatgen
data_ZrGePd
_symmetry_space_group_name_H-M   'P 1'
_cell_length_a   3.97789288
_cell_length_b   6.72083338
_cell_length_c   7.78390909
_cell_angle_alpha   90.00000000
_cell_angle_beta   90.00000000
_cell_angle_gamma   90.00000000
_symmetry_Int_Tables_number   1
_chemical_formula_structural   ZrGePd
_chemical_formula_sum   'Zr4 Ge4 Pd4'
_cell_volume   208.10090448
_cell_formula_units_Z   4
loop_
 _symmetry_equiv_pos_site_id
 _symmetry_equiv_pos_as_xyz
  1  'x, y, z'
loop_
 _atom_site_type_symbol
 _atom_site_label
 _atom_site_symmetry_multiplicity
 _atom_site_fract_x
 _atom_site_fract_y
 _atom_site_fract_z
 _atom_site_occupancy
  Zr  Zr0  1  0.24999982  0.03141091  0.31476768  1
  Zr  Zr1  1  0.74999946  0.46858884  0.81476774  1
  Zr  Zr2  1  0.74999946  0.96858859  0.68523244  1
  Zr  Zr3  1  0.24999982  0.53141066  0.18523238  1
  Ge  Ge4  1  0.24999982  0.25001685  0.62282193  1
  Ge  Ge5  1  0.74999946  0.24998290  0.12282187  1
  Ge  Ge6  1  0.74999946  0.74998265  0.37717818  1
  Ge  Ge7  1  0.24999982  0.75001659  0.87717824  1
  Pd  Pd8  1  0.24999982  0.14197864  0.93853831  1
  Pd  Pd9  1  0.74999946  0.35802111  0.43853825  1
  Pd  Pd10  1  0.74999946  0.85802086  0.06146181  1
  Pd  Pd11  1  0.24999982  0.64197838  0.56146187  1
