# generated using pymatgen
data_In3S4
_symmetry_space_group_name_H-M   'P 1'
_cell_length_a   7.88744451
_cell_length_b   7.88744451
_cell_length_c   7.88744451
_cell_angle_alpha   60.00000000
_cell_angle_beta   60.00000000
_cell_angle_gamma   60.00000000
_symmetry_Int_Tables_number   1
_chemical_formula_structural   In3S4
_chemical_formula_sum   'In6 S8'
_cell_volume   346.97161934
_cell_formula_units_Z   2
loop_
 _symmetry_equiv_pos_site_id
 _symmetry_equiv_pos_as_xyz
  1  'x, y, z'
loop_
 _atom_site_type_symbol
 _atom_site_label
 _atom_site_symmetry_multiplicity
 _atom_site_fract_x
 _atom_site_fract_y
 _atom_site_fract_z
 _atom_site_occupancy
  In  In0  1  0.00000000  0.00000000  0.00000000  1
  In  In1  1  0.25000020  0.25000020  0.25000020  1
  In  In2  1  0.62500050  0.62500050  0.62500050  1
  In  In3  1  0.62500050  0.62500050  0.12500010  1
  In  In4  1  0.62500050  0.12500010  0.62500050  1
  In  In5  1  0.12500010  0.62500050  0.62500050  1
  S  S6  1  0.38380554  0.38380554  0.38380554  1
  S  S7  1  0.38380554  0.38380554  0.84858501  1
  S  S8  1  0.38380554  0.84858501  0.38380554  1
  S  S9  1  0.84858501  0.38380554  0.38380554  1
  S  S10  1  0.86619547  0.86619547  0.40141600  1
  S  S11  1  0.86619547  0.86619547  0.86619547  1
  S  S12  1  0.86619547  0.40141600  0.86619547  1
  S  S13  1  0.40141600  0.86619547  0.86619547  1
