# generated using pymatgen
data_BeRhBr2
_symmetry_space_group_name_H-M   'P 1'
_cell_length_a   4.66990992
_cell_length_b   4.66990992
_cell_length_c   4.66990992
_cell_angle_alpha   119.99730717
_cell_angle_beta   119.99730717
_cell_angle_gamma   90.00466418
_symmetry_Int_Tables_number   1
_chemical_formula_structural   BeRhBr2
_chemical_formula_sum   'Be1 Rh1 Br2'
_cell_volume   72.01586594
_cell_formula_units_Z   1
loop_
 _symmetry_equiv_pos_site_id
 _symmetry_equiv_pos_as_xyz
  1  'x, y, z'
loop_
 _atom_site_type_symbol
 _atom_site_label
 _atom_site_symmetry_multiplicity
 _atom_site_fract_x
 _atom_site_fract_y
 _atom_site_fract_z
 _atom_site_occupancy
  Be  Be0  1  0.74999996  0.24999996  0.50000000  1
  Rh  Rh1  1  0.24999996  0.74999996  0.50000000  1
  Br  Br2  1  0.00000000  0.00000000  0.00000000  1
  Br  Br3  1  0.49999991  0.49999991  0.00000000  1
