# generated using pymatgen
data_BeNbRh
_symmetry_space_group_name_H-M   'P 1'
_cell_length_a   2.87737765
_cell_length_b   2.87737765
_cell_length_c   5.88759004
_cell_angle_alpha   90.00000000
_cell_angle_beta   90.00000000
_cell_angle_gamma   119.99999419
_symmetry_Int_Tables_number   1
_chemical_formula_structural   BeNbRh
_chemical_formula_sum   'Be1 Nb1 Rh1'
_cell_volume   42.21452935
_cell_formula_units_Z   1
loop_
 _symmetry_equiv_pos_site_id
 _symmetry_equiv_pos_as_xyz
  1  'x, y, z'
loop_
 _atom_site_type_symbol
 _atom_site_label
 _atom_site_symmetry_multiplicity
 _atom_site_fract_x
 _atom_site_fract_y
 _atom_site_fract_z
 _atom_site_occupancy
  Be  Be0  1  0.00000000  0.00000000  0.02624340  1
  Nb  Nb1  1  0.66666723  0.33333350  0.67669790  1
  Rh  Rh2  1  0.33333350  0.66666723  0.29705869  1
