# generated using pymatgen
data_ScBe2Te
_symmetry_space_group_name_H-M   'P 1'
_cell_length_a   5.28847166
_cell_length_b   5.28847166
_cell_length_c   5.28847166
_cell_angle_alpha   137.01460695
_cell_angle_beta   137.01460695
_cell_angle_gamma   62.41557659
_symmetry_Int_Tables_number   1
_chemical_formula_structural   ScBe2Te
_chemical_formula_sum   'Sc1 Be2 Te1'
_cell_volume   67.92593326
_cell_formula_units_Z   1
loop_
 _symmetry_equiv_pos_site_id
 _symmetry_equiv_pos_as_xyz
  1  'x, y, z'
loop_
 _atom_site_type_symbol
 _atom_site_label
 _atom_site_symmetry_multiplicity
 _atom_site_fract_x
 _atom_site_fract_y
 _atom_site_fract_z
 _atom_site_occupancy
  Sc  Sc0  1  0.25000015  0.74999909  0.49999894  1
  Be  Be1  1  0.00000000  0.00000000  0.00000000  1
  Be  Be2  1  0.50000031  0.50000031  0.00000000  1
  Te  Te3  1  0.74999909  0.25000015  0.49999894  1
