# generated using pymatgen
data_BeGa2Tc
_symmetry_space_group_name_H-M   'P 1'
_cell_length_a   4.79654596
_cell_length_b   4.79654596
_cell_length_c   4.79654596
_cell_angle_alpha   135.58324996
_cell_angle_beta   135.58324996
_cell_angle_gamma   64.62529956
_symmetry_Int_Tables_number   1
_chemical_formula_structural   BeGa2Tc
_chemical_formula_sum   'Be1 Ga2 Tc1'
_cell_volume   53.29729570
_cell_formula_units_Z   1
loop_
 _symmetry_equiv_pos_site_id
 _symmetry_equiv_pos_as_xyz
  1  'x, y, z'
loop_
 _atom_site_type_symbol
 _atom_site_label
 _atom_site_symmetry_multiplicity
 _atom_site_fract_x
 _atom_site_fract_y
 _atom_site_fract_z
 _atom_site_occupancy
  Be  Be0  1  0.74999997  0.24999992  0.50000005  1
  Ga  Ga1  1  0.00000000  0.00000000  0.00000000  1
  Ga  Ga2  1  0.24999992  0.74999997  0.50000005  1
  Tc  Tc3  1  0.49999984  0.49999984  0.00000000  1
