# generated using pymatgen
data_AgClO4
_symmetry_space_group_name_H-M   'P 1'
_cell_length_a   4.86876766
_cell_length_b   4.86876766
_cell_length_c   4.86876766
_cell_angle_alpha   119.12629041
_cell_angle_beta   119.12629041
_cell_angle_gamma   91.52009060
_symmetry_Int_Tables_number   1
_chemical_formula_structural   AgClO4
_chemical_formula_sum   'Ag1 Cl1 O4'
_cell_volume   82.65603726
_cell_formula_units_Z   1
loop_
 _symmetry_equiv_pos_site_id
 _symmetry_equiv_pos_as_xyz
  1  'x, y, z'
loop_
 _atom_site_type_symbol
 _atom_site_label
 _atom_site_symmetry_multiplicity
 _atom_site_fract_x
 _atom_site_fract_y
 _atom_site_fract_z
 _atom_site_occupancy
  Ag  Ag0  1  0.50000028  0.50000028  0.00000000  1
  Cl  Cl1  1  0.00000000  0.00000000  0.00000000  1
  O  O2  1  0.04281074  0.04281074  0.34103612  1
  O  O3  1  0.70177458  0.70177458  0.65896326  1
  O  O4  1  0.29822597  0.95718923  0.00000000  1
  O  O5  1  0.95718923  0.29822597  0.00000000  1
