# generated using pymatgen
data_Cu2GeAs
_symmetry_space_group_name_H-M   'P 1'
_cell_length_a   4.51219300
_cell_length_b   4.51219300
_cell_length_c   4.51219300
_cell_angle_alpha   60.00000000
_cell_angle_beta   60.00000000
_cell_angle_gamma   60.00000000
_symmetry_Int_Tables_number   1
_chemical_formula_structural   Cu2GeAs
_chemical_formula_sum   'Cu2 Ge1 As1'
_cell_volume   64.96029761
_cell_formula_units_Z   1
loop_
 _symmetry_equiv_pos_site_id
 _symmetry_equiv_pos_as_xyz
  1  'x, y, z'
loop_
 _atom_site_type_symbol
 _atom_site_label
 _atom_site_symmetry_multiplicity
 _atom_site_fract_x
 _atom_site_fract_y
 _atom_site_fract_z
 _atom_site_occupancy
  Cu  Cu0  1  0.00000000  0.00000000  0.00000000  1
  Cu  Cu1  1  0.24999982  0.24999982  0.24999982  1
  Ge  Ge2  1  0.74999947  0.74999947  0.74999947  1
  As  As3  1  0.49999964  0.49999964  0.49999964  1
