# generated using pymatgen
data_RbCd4As3
_symmetry_space_group_name_H-M   'P 1'
_cell_length_a   12.66627793
_cell_length_b   12.66627793
_cell_length_c   12.66627777
_cell_angle_alpha   20.65762534
_cell_angle_beta   20.65762534
_cell_angle_gamma   20.65762682
_symmetry_Int_Tables_number   1
_chemical_formula_structural   RbCd4As3
_chemical_formula_sum   'Rb1 Cd4 As3'
_cell_volume   221.39640217
_cell_formula_units_Z   1
loop_
 _symmetry_equiv_pos_site_id
 _symmetry_equiv_pos_as_xyz
  1  'x, y, z'
loop_
 _atom_site_type_symbol
 _atom_site_label
 _atom_site_symmetry_multiplicity
 _atom_site_fract_x
 _atom_site_fract_y
 _atom_site_fract_z
 _atom_site_occupancy
  Rb  Rb0  1  0.49999988  0.49999988  0.50000061  1
  Cd  Cd1  1  0.08706796  0.08706796  0.08706808  1
  Cd  Cd2  1  0.91293179  0.91293179  0.91293315  1
  Cd  Cd3  1  0.30213545  0.30213545  0.30213590  1
  Cd  Cd4  1  0.69786430  0.69786430  0.69786533  1
  As  As5  1  0.22980993  0.22980993  0.22981027  1
  As  As6  1  0.77018982  0.77018982  0.77019096  1
  As  As7  1  0.00000000  0.00000000  0.00000000  1
