# generated using pymatgen
data_BePbBr4
_symmetry_space_group_name_H-M   'P 1'
_cell_length_a   6.35199138
_cell_length_b   6.35199138
_cell_length_c   6.35199138
_cell_angle_alpha   60.00000000
_cell_angle_beta   60.00000000
_cell_angle_gamma   60.00000000
_symmetry_Int_Tables_number   1
_chemical_formula_structural   BePbBr4
_chemical_formula_sum   'Be1 Pb1 Br4'
_cell_volume   181.22357829
_cell_formula_units_Z   1
loop_
 _symmetry_equiv_pos_site_id
 _symmetry_equiv_pos_as_xyz
  1  'x, y, z'
loop_
 _atom_site_type_symbol
 _atom_site_label
 _atom_site_symmetry_multiplicity
 _atom_site_fract_x
 _atom_site_fract_y
 _atom_site_fract_z
 _atom_site_occupancy
  Be  Be0  1  0.00000000  0.00000000  0.00000000  1
  Pb  Pb1  1  0.25000021  0.25000021  0.25000021  1
  Br  Br2  1  0.12459369  0.62513600  0.62513600  1
  Br  Br3  1  0.62513600  0.62513600  0.62513600  1
  Br  Br4  1  0.62513600  0.12459369  0.62513600  1
  Br  Br5  1  0.62513600  0.62513600  0.12459369  1
