# generated using pymatgen
data_BaP2Br
_symmetry_space_group_name_H-M   'P 1'
_cell_length_a   6.82296464
_cell_length_b   6.82296464
_cell_length_c   6.82296464
_cell_angle_alpha   143.77216938
_cell_angle_beta   143.77216938
_cell_angle_gamma   52.16811511
_symmetry_Int_Tables_number   1
_chemical_formula_structural   BaP2Br
_chemical_formula_sum   'Ba1 P2 Br1'
_cell_volume   110.30366931
_cell_formula_units_Z   1
loop_
 _symmetry_equiv_pos_site_id
 _symmetry_equiv_pos_as_xyz
  1  'x, y, z'
loop_
 _atom_site_type_symbol
 _atom_site_label
 _atom_site_symmetry_multiplicity
 _atom_site_fract_x
 _atom_site_fract_y
 _atom_site_fract_z
 _atom_site_occupancy
  Ba  Ba0  1  0.25000019  0.75000035  0.50000016  1
  P  P1  1  0.00000000  0.00000000  0.00000000  1
  P  P2  1  0.50000038  0.50000038  0.00000000  1
  Br  Br3  1  0.75000035  0.25000019  0.50000016  1
