# generated using pymatgen
data_KFeSe2
_symmetry_space_group_name_H-M   'P 1'
_cell_length_a   6.74456562
_cell_length_b   6.74456562
_cell_length_c   5.58151462
_cell_angle_alpha   77.78403972
_cell_angle_beta   77.78403972
_cell_angle_gamma   116.40389814
_symmetry_Int_Tables_number   1
_chemical_formula_structural   KFeSe2
_chemical_formula_sum   'K2 Fe2 Se4'
_cell_volume   208.27066436
_cell_formula_units_Z   2
loop_
 _symmetry_equiv_pos_site_id
 _symmetry_equiv_pos_as_xyz
  1  'x, y, z'
loop_
 _atom_site_type_symbol
 _atom_site_label
 _atom_site_symmetry_multiplicity
 _atom_site_fract_x
 _atom_site_fract_y
 _atom_site_fract_z
 _atom_site_occupancy
  K  K0  1  0.36324998  0.63674916  0.24999951  1
  K  K1  1  0.63674905  0.36324986  0.74999958  1
  Fe  Fe2  1  0.99757576  0.00242338  0.24999951  1
  Fe  Fe3  1  0.00242327  0.99757565  0.74999958  1
  Se  Se4  1  0.91621466  0.68395973  0.10440177  1
  Se  Se5  1  0.31603942  0.08378448  0.39559725  1
  Se  Se6  1  0.08378436  0.31603930  0.89559732  1
  Se  Se7  1  0.68395961  0.91621455  0.60440184  1
