# generated using pymatgen
data_BaCaV
_symmetry_space_group_name_H-M   'P 1'
_cell_length_a   5.61735616
_cell_length_b   5.61735616
_cell_length_c   5.61735616
_cell_angle_alpha   60.00000000
_cell_angle_beta   60.00000000
_cell_angle_gamma   60.00000000
_symmetry_Int_Tables_number   1
_chemical_formula_structural   BaCaV
_chemical_formula_sum   'Ba1 Ca1 V1'
_cell_volume   125.33745849
_cell_formula_units_Z   1
loop_
 _symmetry_equiv_pos_site_id
 _symmetry_equiv_pos_as_xyz
  1  'x, y, z'
loop_
 _atom_site_type_symbol
 _atom_site_label
 _atom_site_symmetry_multiplicity
 _atom_site_fract_x
 _atom_site_fract_y
 _atom_site_fract_z
 _atom_site_occupancy
  Ba  Ba0  1  0.74999988  0.74999988  0.74999988  1
  Ca  Ca1  1  0.00000000  0.00000000  0.00000000  1
  V  V2  1  0.49999992  0.49999992  0.49999992  1
