# generated using pymatgen
data_HfBeTl
_symmetry_space_group_name_H-M   'P 1'
_cell_length_a   3.14423608
_cell_length_b   3.14423608
_cell_length_c   6.85158351
_cell_angle_alpha   90.00000000
_cell_angle_beta   90.00000000
_cell_angle_gamma   119.99997836
_symmetry_Int_Tables_number   1
_chemical_formula_structural   HfBeTl
_chemical_formula_sum   'Hf1 Be1 Tl1'
_cell_volume   58.66133937
_cell_formula_units_Z   1
loop_
 _symmetry_equiv_pos_site_id
 _symmetry_equiv_pos_as_xyz
  1  'x, y, z'
loop_
 _atom_site_type_symbol
 _atom_site_label
 _atom_site_symmetry_multiplicity
 _atom_site_fract_x
 _atom_site_fract_y
 _atom_site_fract_z
 _atom_site_occupancy
  Hf  Hf0  1  0.33333334  0.66666758  0.30673912  1
  Be  Be1  1  0.00000000  0.00000000  -0.00112740  1
  Tl  Tl2  1  0.66666758  0.33333334  0.69438777  1
