# generated using pymatgen
data_La2Ge5Ir3
_symmetry_space_group_name_H-M   'P 1'
_cell_length_a   8.54584947
_cell_length_b   8.54584947
_cell_length_c   8.54584947
_cell_angle_alpha   137.62028013
_cell_angle_beta   105.65866265
_cell_angle_gamma   89.50726245
_symmetry_Int_Tables_number   1
_chemical_formula_structural   La2Ge5Ir3
_chemical_formula_sum   'La4 Ge10 Ir6'
_cell_volume   387.17232909
_cell_formula_units_Z   2
loop_
 _symmetry_equiv_pos_site_id
 _symmetry_equiv_pos_as_xyz
  1  'x, y, z'
loop_
 _atom_site_type_symbol
 _atom_site_label
 _atom_site_symmetry_multiplicity
 _atom_site_fract_x
 _atom_site_fract_y
 _atom_site_fract_z
 _atom_site_occupancy
  La  La0  1  0.90065095  0.13182944  0.76882151  1
  La  La1  1  0.36300838  0.63182960  0.73117910  1
  La  La2  1  0.63699218  0.36817089  0.26882129  1
  La  La3  1  0.09934960  0.86817105  0.23117887  1
  Ge  Ge4  1  0.00000000  0.25000008  0.25000008  1
  Ge  Ge5  1  0.27280964  0.02280949  0.75000031  1
  Ge  Ge6  1  0.44415464  0.10120767  0.34294696  1
  Ge  Ge7  1  0.72719091  0.97719099  0.25000008  1
  Ge  Ge8  1  0.27280974  0.52280982  0.25000008  1
  Ge  Ge9  1  0.24173929  0.39879248  0.84294712  1
  Ge  Ge10  1  0.75826127  0.60120800  0.15705326  1
  Ge  Ge11  1  0.55584592  0.89879281  0.65705342  1
  Ge  Ge12  1  0.72719081  0.47719066  0.75000031  1
  Ge  Ge13  1  -0.00000000  0.75000024  0.75000024  1
  Ir  Ir14  1  0.25092755  0.14034563  0.11058192  1
  Ir  Ir15  1  0.74907301  0.85965485  0.88941847  1
  Ir  Ir16  1  0.02976372  0.64034579  0.38941824  1
  Ir  Ir17  1  0.97023684  0.35965470  0.61058215  1
  Ir  Ir18  1  0.50000023  0.25000008  0.75000031  1
  Ir  Ir19  1  0.50000033  0.75000041  0.25000008  1
