# generated using pymatgen
data_CaBe2Bi
_symmetry_space_group_name_H-M   'P 1'
_cell_length_a   5.54990540
_cell_length_b   5.54990540
_cell_length_c   5.54990540
_cell_angle_alpha   135.85071563
_cell_angle_beta   135.85071563
_cell_angle_gamma   64.21121580
_symmetry_Int_Tables_number   1
_chemical_formula_structural   CaBe2Bi
_chemical_formula_sum   'Ca1 Be2 Bi1'
_cell_volume   81.80545729
_cell_formula_units_Z   1
loop_
 _symmetry_equiv_pos_site_id
 _symmetry_equiv_pos_as_xyz
  1  'x, y, z'
loop_
 _atom_site_type_symbol
 _atom_site_label
 _atom_site_symmetry_multiplicity
 _atom_site_fract_x
 _atom_site_fract_y
 _atom_site_fract_z
 _atom_site_occupancy
  Ca  Ca0  1  0.74999938  0.25000011  0.49999927  1
  Be  Be1  1  0.00000000  0.00000000  0.00000000  1
  Be  Be2  1  0.25000011  0.74999938  0.49999927  1
  Bi  Bi3  1  0.50000023  0.50000023  0.00000000  1
