# generated using pymatgen
data_Te3As2
_symmetry_space_group_name_H-M   'P 1'
_cell_length_a   4.11516349
_cell_length_b   4.11516349
_cell_length_c   29.64893021
_cell_angle_alpha   90.00000000
_cell_angle_beta   90.00000000
_cell_angle_gamma   119.99998295
_symmetry_Int_Tables_number   1
_chemical_formula_structural   Te3As2
_chemical_formula_sum   'Te9 As6'
_cell_volume   434.82441529
_cell_formula_units_Z   3
loop_
 _symmetry_equiv_pos_site_id
 _symmetry_equiv_pos_as_xyz
  1  'x, y, z'
loop_
 _atom_site_type_symbol
 _atom_site_label
 _atom_site_symmetry_multiplicity
 _atom_site_fract_x
 _atom_site_fract_y
 _atom_site_fract_z
 _atom_site_occupancy
  Te  Te0  1  0.00000000  0.00000000  0.00063287  1
  Te  Te1  1  0.33333225  0.66666664  0.66729683  1
  Te  Te2  1  0.66666664  0.33333225  0.33396454  1
  Te  Te3  1  0.33333225  0.66666664  0.88343107  1
  Te  Te4  1  0.66666664  0.33333225  0.55008199  1
  Te  Te5  1  0.00000000  0.00000000  0.21675477  1
  Te  Te6  1  0.00000000  0.00000000  0.78451686  1
  Te  Te7  1  0.33333225  0.66666664  0.45117783  1
  Te  Te8  1  0.66666664  0.33333225  0.11784005  1
  As  As9  1  0.66666664  0.33333225  0.93758989  1
  As  As10  1  0.00000000  0.00000000  0.60424419  1
  As  As11  1  0.33333225  0.66666664  0.27091525  1
  As  As12  1  0.66666664  0.33333225  0.73035507  1
  As  As13  1  0.00000000  0.00000000  0.39701822  1
  As  As14  1  0.33333225  0.66666664  0.06368152  1
