# generated using pymatgen
data_TiGaAs
_symmetry_space_group_name_H-M   'P 1'
_cell_length_a   4.42550817
_cell_length_b   4.42550817
_cell_length_c   4.42550817
_cell_angle_alpha   60.00000000
_cell_angle_beta   60.00000000
_cell_angle_gamma   60.00000000
_symmetry_Int_Tables_number   1
_chemical_formula_structural   TiGaAs
_chemical_formula_sum   'Ti1 Ga1 As1'
_cell_volume   61.28785802
_cell_formula_units_Z   1
loop_
 _symmetry_equiv_pos_site_id
 _symmetry_equiv_pos_as_xyz
  1  'x, y, z'
loop_
 _atom_site_type_symbol
 _atom_site_label
 _atom_site_symmetry_multiplicity
 _atom_site_fract_x
 _atom_site_fract_y
 _atom_site_fract_z
 _atom_site_occupancy
  Ti  Ti0  1  0.00000000  0.00000000  0.00000000  1
  Ga  Ga1  1  0.75000076  0.75000076  0.75000076  1
  As  As2  1  0.50000051  0.50000051  0.50000051  1
