# generated using pymatgen
data_K3FeO3
_symmetry_space_group_name_H-M   'P 1'
_cell_length_a   6.55604644
_cell_length_b   6.55604644
_cell_length_c   6.44820366
_cell_angle_alpha   83.67801008
_cell_angle_beta   83.67801008
_cell_angle_gamma   113.49597056
_symmetry_Int_Tables_number   1
_chemical_formula_structural   K3FeO3
_chemical_formula_sum   'K6 Fe2 O6'
_cell_volume   248.99741818
_cell_formula_units_Z   2
loop_
 _symmetry_equiv_pos_site_id
 _symmetry_equiv_pos_as_xyz
  1  'x, y, z'
loop_
 _atom_site_type_symbol
 _atom_site_label
 _atom_site_symmetry_multiplicity
 _atom_site_fract_x
 _atom_site_fract_y
 _atom_site_fract_z
 _atom_site_occupancy
  K  K0  1  0.25785428  0.74214535  0.00000046  1
  K  K1  1  0.74214535  0.25785428  0.00000046  1
  K  K2  1  0.18441285  0.81558681  0.50000048  1
  K  K3  1  0.81558681  0.18441285  0.50000048  1
  K  K4  1  0.62562928  0.62562928  0.64923233  1
  K  K5  1  0.37437037  0.37437037  0.35076863  1
  Fe  Fe6  1  0.82463750  0.82463750  0.14395563  1
  Fe  Fe7  1  0.17536216  0.17536216  0.85604533  1
  O  O8  1  0.09391641  0.09391641  0.16769075  1
  O  O9  1  0.90608325  0.90608325  0.83231020  1
  O  O10  1  0.84214804  0.56444074  0.26736233  1
  O  O11  1  0.43555892  0.15785161  0.73263863  1
  O  O12  1  0.15785161  0.43555892  0.73263863  1
  O  O13  1  0.56444074  0.84214804  0.26736233  1
