# generated using pymatgen
data_MnBeGe
_symmetry_space_group_name_H-M   'P 1'
_cell_length_a   2.71213202
_cell_length_b   2.71213202
_cell_length_c   5.91050791
_cell_angle_alpha   90.00000000
_cell_angle_beta   90.00000000
_cell_angle_gamma   119.99998986
_symmetry_Int_Tables_number   1
_chemical_formula_structural   MnBeGe
_chemical_formula_sum   'Mn1 Be1 Ge1'
_cell_volume   37.65105342
_cell_formula_units_Z   1
loop_
 _symmetry_equiv_pos_site_id
 _symmetry_equiv_pos_as_xyz
  1  'x, y, z'
loop_
 _atom_site_type_symbol
 _atom_site_label
 _atom_site_symmetry_multiplicity
 _atom_site_fract_x
 _atom_site_fract_y
 _atom_site_fract_z
 _atom_site_occupancy
  Mn  Mn0  1  0.33333405  0.66666874  0.68190241  1
  Be  Be1  1  0.00000000  0.00000000  0.97966787  1
  Ge  Ge2  1  0.66666874  0.33333405  0.33843043  1
