# generated using pymatgen
data_BaYGe2
_symmetry_space_group_name_H-M   'P 1'
_cell_length_a   4.43430606
_cell_length_b   4.43430606
_cell_length_c   6.26683298
_cell_angle_alpha   90.00000000
_cell_angle_beta   90.00000000
_cell_angle_gamma   90.00000000
_symmetry_Int_Tables_number   1
_chemical_formula_structural   BaYGe2
_chemical_formula_sum   'Ba1 Y1 Ge2'
_cell_volume   123.22517681
_cell_formula_units_Z   1
loop_
 _symmetry_equiv_pos_site_id
 _symmetry_equiv_pos_as_xyz
  1  'x, y, z'
loop_
 _atom_site_type_symbol
 _atom_site_label
 _atom_site_symmetry_multiplicity
 _atom_site_fract_x
 _atom_site_fract_y
 _atom_site_fract_z
 _atom_site_occupancy
  Ba  Ba0  1  0.50000044  0.50000044  0.87498517  1
  Y  Y1  1  0.00000000  0.00000000  0.37502634  1
  Ge  Ge2  1  0.00000000  0.00000000  0.87500996  1
  Ge  Ge3  1  0.50000044  0.50000044  0.37497835  1
