# generated using pymatgen
data_BaTa2Be
_symmetry_space_group_name_H-M   'P 1'
_cell_length_a   4.22219732
_cell_length_b   4.22219732
_cell_length_c   4.73741991
_cell_angle_alpha   90.00000000
_cell_angle_beta   90.00000000
_cell_angle_gamma   90.00000000
_symmetry_Int_Tables_number   1
_chemical_formula_structural   BaTa2Be
_chemical_formula_sum   'Ba1 Ta2 Be1'
_cell_volume   84.45374901
_cell_formula_units_Z   1
loop_
 _symmetry_equiv_pos_site_id
 _symmetry_equiv_pos_as_xyz
  1  'x, y, z'
loop_
 _atom_site_type_symbol
 _atom_site_label
 _atom_site_symmetry_multiplicity
 _atom_site_fract_x
 _atom_site_fract_y
 _atom_site_fract_z
 _atom_site_occupancy
  Ba  Ba0  1  0.00000000  0.00000000  0.50000001  1
  Ta  Ta1  1  0.00000000  0.50000032  0.00000000  1
  Ta  Ta2  1  0.50000032  0.00000000  0.00000000  1
  Be  Be3  1  0.50000032  0.50000032  0.50000001  1
