# generated using pymatgen
data_UReC2
_symmetry_space_group_name_H-M   'P 1'
_cell_length_a   3.19365467
_cell_length_b   5.60481110
_cell_length_c   11.09552418
_cell_angle_alpha   90.00000000
_cell_angle_beta   90.00000000
_cell_angle_gamma   90.00000000
_symmetry_Int_Tables_number   1
_chemical_formula_structural   UReC2
_chemical_formula_sum   'U4 Re4 C8'
_cell_volume   198.60800928
_cell_formula_units_Z   4
loop_
 _symmetry_equiv_pos_site_id
 _symmetry_equiv_pos_as_xyz
  1  'x, y, z'
loop_
 _atom_site_type_symbol
 _atom_site_label
 _atom_site_symmetry_multiplicity
 _atom_site_fract_x
 _atom_site_fract_y
 _atom_site_fract_z
 _atom_site_occupancy
  U  U0  1  0.24999963  0.08396136  0.85903191  1
  U  U1  1  0.74999890  0.41603854  0.35903210  1
  U  U2  1  0.74999890  0.91603845  0.14096771  1
  U  U3  1  0.24999963  0.58396126  0.64096752  1
  Re  Re4  1  0.24999963  0.41933942  0.10510326  1
  Re  Re5  1  0.74999890  0.08066048  0.60510307  1
  Re  Re6  1  0.74999890  0.58066039  0.89489637  1
  Re  Re7  1  0.24999963  0.91933932  0.39489655  1
  C  C8  1  0.24999963  0.16055405  0.24420924  1
  C  C9  1  0.74999890  0.33944585  0.74420905  1
  C  C10  1  0.74999890  0.83944575  0.75579039  1
  C  C11  1  0.24999963  0.66055395  0.25579058  1
  C  C12  1  0.24999963  0.74346873  0.99258924  1
  C  C13  1  0.74999890  0.75653098  0.49258943  1
  C  C14  1  0.74999890  0.25653108  0.00741039  1
  C  C15  1  0.24999963  0.24346882  0.50741020  1
