# generated using pymatgen
data_Ni3P
_symmetry_space_group_name_H-M   'P 1'
_cell_length_a   6.69973601
_cell_length_b   6.69973601
_cell_length_c   6.69973601
_cell_angle_alpha   96.09740857
_cell_angle_beta   96.09740857
_cell_angle_gamma   141.95823846
_symmetry_Int_Tables_number   1
_chemical_formula_structural   Ni3P
_chemical_formula_sum   'Ni12 P4'
_cell_volume   175.20054076
_cell_formula_units_Z   4
loop_
 _symmetry_equiv_pos_site_id
 _symmetry_equiv_pos_as_xyz
  1  'x, y, z'
loop_
 _atom_site_type_symbol
 _atom_site_label
 _atom_site_symmetry_multiplicity
 _atom_site_fract_x
 _atom_site_fract_y
 _atom_site_fract_z
 _atom_site_occupancy
  Ni  Ni0  1  0.31642519  0.12849179  0.96471184  1
  Ni  Ni1  1  0.16378062  0.35171319  0.03528827  1
  Ni  Ni2  1  0.87150804  0.83621977  0.18793258  1
  Ni  Ni3  1  0.64828747  0.68357492  0.81206753  1
  Ni  Ni4  1  0.34102445  0.94293037  0.33236018  1
  Ni  Ni5  1  0.61057047  0.00866373  0.66763993  1
  Ni  Ni6  1  0.05707029  0.38942964  0.39809419  1
  Ni  Ni7  1  0.99133611  0.65897593  0.60190592  1
  Ni  Ni8  1  0.92344226  0.53460435  0.94751864  1
  Ni  Ni9  1  0.58708636  0.97592345  0.05248147  1
  Ni  Ni10  1  0.46539549  0.41291402  0.38883708  1
  Ni  Ni11  1  0.02407722  0.07655786  0.61116303  1
  P  P12  1  0.76536450  0.43201083  0.23642206  1
  P  P13  1  0.19558905  0.52894189  0.76357805  1
  P  P14  1  0.56798955  0.80441161  0.33335367  1
  P  P15  1  0.47105822  0.23463533  0.66664644  1
