# generated using pymatgen
data_KBeCd2
_symmetry_space_group_name_H-M   'P 1'
_cell_length_a   5.15382903
_cell_length_b   5.15382903
_cell_length_c   5.15382903
_cell_angle_alpha   120.13546501
_cell_angle_beta   120.13546501
_cell_angle_gamma   89.76552742
_symmetry_Int_Tables_number   1
_chemical_formula_structural   KBeCd2
_chemical_formula_sum   'K1 Be1 Cd2'
_cell_volume   96.60084626
_cell_formula_units_Z   1
loop_
 _symmetry_equiv_pos_site_id
 _symmetry_equiv_pos_as_xyz
  1  'x, y, z'
loop_
 _atom_site_type_symbol
 _atom_site_label
 _atom_site_symmetry_multiplicity
 _atom_site_fract_x
 _atom_site_fract_y
 _atom_site_fract_z
 _atom_site_occupancy
  K  K0  1  0.50000046  0.50000046  0.00000000  1
  Be  Be1  1  0.75000094  0.25000023  0.50000071  1
  Cd  Cd2  1  0.00000000  0.00000000  0.00000000  1
  Cd  Cd3  1  0.25000023  0.75000094  0.50000071  1
