# generated using pymatgen
data_VO2
_symmetry_space_group_name_H-M   'P 1'
_cell_length_a   4.57549890
_cell_length_b   5.38645407
_cell_length_c   5.38643892
_cell_angle_alpha   63.76027517
_cell_angle_beta   90.00000000
_cell_angle_gamma   90.00000000
_symmetry_Int_Tables_number   1
_chemical_formula_structural   VO2
_chemical_formula_sum   'V4 O8'
_cell_volume   119.07274904
_cell_formula_units_Z   4
loop_
 _symmetry_equiv_pos_site_id
 _symmetry_equiv_pos_as_xyz
  1  'x, y, z'
loop_
 _atom_site_type_symbol
 _atom_site_label
 _atom_site_symmetry_multiplicity
 _atom_site_fract_x
 _atom_site_fract_y
 _atom_site_fract_z
 _atom_site_occupancy
  V  V0  1  -0.00001883  0.74997905  0.25004111  1
  V  V1  1  0.49998129  0.25001958  0.24995956  1
  V  V2  1  0.00001883  0.25001931  0.74995982  1
  V  V3  1  0.50001895  0.74997878  0.75004137  1
  O  O4  1  0.79966784  0.89965308  0.89968350  1
  O  O5  1  0.29966772  0.10034500  0.60031768  1
  O  O6  1  0.20033240  0.10034528  0.10031743  1
  O  O7  1  0.70033252  0.89965336  0.39968325  1
  O  O8  1  0.29962869  0.60032959  0.10035904  1
  O  O9  1  0.79962880  0.39966904  0.39964164  1
  O  O10  1  0.70037155  0.39966877  0.89964189  1
  O  O11  1  0.20037143  0.60032932  0.60035929  1
