# generated using pymatgen
data_HfFeCl6
_symmetry_space_group_name_H-M   'P 1'
_cell_length_a   6.20508730
_cell_length_b   6.20540978
_cell_length_c   11.67818946
_cell_angle_alpha   89.99412138
_cell_angle_beta   90.01175784
_cell_angle_gamma   119.99828097
_symmetry_Int_Tables_number   1
_chemical_formula_structural   HfFeCl6
_chemical_formula_sum   'Hf2 Fe2 Cl12'
_cell_volume   389.43234827
_cell_formula_units_Z   2
loop_
 _symmetry_equiv_pos_site_id
 _symmetry_equiv_pos_as_xyz
  1  'x, y, z'
loop_
 _atom_site_type_symbol
 _atom_site_label
 _atom_site_symmetry_multiplicity
 _atom_site_fract_x
 _atom_site_fract_y
 _atom_site_fract_z
 _atom_site_occupancy
  Hf  Hf0  1  0.33320543  0.66641136  0.75000004  1
  Hf  Hf1  1  0.66679430  0.33358953  0.24999981  1
  Fe  Fe2  1  -0.00009782  -0.00019533  0.75000004  1
  Fe  Fe3  1  0.00009787  0.00019584  0.25000001  1
  Cl  Cl4  1  0.31838784  0.98386460  0.62894934  1
  Cl  Cl5  1  0.01575945  0.33428371  0.62893333  1
  Cl  Cl6  1  0.66535361  0.68125920  0.62892346  1
  Cl  Cl7  1  0.66547618  0.98386462  0.87105074  1
  Cl  Cl8  1  0.31852387  0.33428375  0.87106675  1
  Cl  Cl9  1  0.01590524  0.68125951  0.87107661  1
  Cl  Cl10  1  0.68161188  0.01613629  0.37105051  1
  Cl  Cl11  1  0.98424027  0.66571718  0.37106652  1
  Cl  Cl12  1  0.33464612  0.31874169  0.37107638  1
  Cl  Cl13  1  0.33452355  0.01613627  0.12894911  1
  Cl  Cl14  1  0.68147586  0.66571715  0.12893310  1
  Cl  Cl15  1  0.98409448  0.31874138  0.12892323  1
