# generated using pymatgen
data_HfCrSi
_symmetry_space_group_name_H-M   'P 1'
_cell_length_a   3.46269108
_cell_length_b   6.69849022
_cell_length_c   7.85082249
_cell_angle_alpha   90.00000000
_cell_angle_beta   90.00000000
_cell_angle_gamma   90.00000000
_symmetry_Int_Tables_number   1
_chemical_formula_structural   HfCrSi
_chemical_formula_sum   'Hf4 Cr4 Si4'
_cell_volume   182.09827612
_cell_formula_units_Z   4
loop_
 _symmetry_equiv_pos_site_id
 _symmetry_equiv_pos_as_xyz
  1  'x, y, z'
loop_
 _atom_site_type_symbol
 _atom_site_label
 _atom_site_symmetry_multiplicity
 _atom_site_fract_x
 _atom_site_fract_y
 _atom_site_fract_z
 _atom_site_occupancy
  Hf  Hf0  1  0.24999992  0.04411837  0.33107928  1
  Hf  Hf1  1  0.74999977  0.45588161  0.83107912  1
  Hf  Hf2  1  0.74999977  0.95588160  0.66892041  1
  Hf  Hf3  1  0.24999992  0.54411835  0.16892056  1
  Cr  Cr4  1  0.24999992  0.12387376  0.94126504  1
  Cr  Cr5  1  0.74999977  0.37612623  0.44126520  1
  Cr  Cr6  1  0.74999977  0.87612621  0.05873465  1
  Cr  Cr7  1  0.24999992  0.62387374  0.55873449  1
  Si  Si8  1  0.24999992  0.25876384  0.63343048  1
  Si  Si9  1  0.74999977  0.24123614  0.13343064  1
  Si  Si10  1  0.74999977  0.74123612  0.36656920  1
  Si  Si11  1  0.24999992  0.75876383  0.86656904  1
