# generated using pymatgen
data_LaCrO3
_symmetry_space_group_name_H-M   'P 1'
_cell_length_a   5.52300804
_cell_length_b   5.53113546
_cell_length_c   7.80496876
_cell_angle_alpha   90.00000000
_cell_angle_beta   90.00000000
_cell_angle_gamma   90.00000000
_symmetry_Int_Tables_number   1
_chemical_formula_structural   LaCrO3
_chemical_formula_sum   'La4 Cr4 O12'
_cell_volume   238.43013216
_cell_formula_units_Z   4
loop_
 _symmetry_equiv_pos_site_id
 _symmetry_equiv_pos_as_xyz
  1  'x, y, z'
loop_
 _atom_site_type_symbol
 _atom_site_label
 _atom_site_symmetry_multiplicity
 _atom_site_fract_x
 _atom_site_fract_y
 _atom_site_fract_z
 _atom_site_occupancy
  La  La0  1  0.96841391  0.99421895  0.25000004  1
  La  La1  1  0.53158662  0.49421854  0.75000012  1
  La  La2  1  0.03158644  0.00578187  0.75000012  1
  La  La3  1  0.46841374  0.50578228  0.25000004  1
  Cr  Cr4  1  0.00000000  0.50000041  0.00000000  1
  Cr  Cr5  1  0.50000018  0.00000000  0.00000000  1
  Cr  Cr6  1  0.00000000  0.50000041  0.50000008  1
  Cr  Cr7  1  0.50000018  0.00000000  0.50000008  1
  O  O8  1  0.21538265  0.78438343  0.03880571  1
  O  O9  1  0.28461753  0.28438302  0.96119445  1
  O  O10  1  0.21538265  0.78438343  0.46119437  1
  O  O11  1  0.28461753  0.28438302  0.53880578  1
  O  O12  1  0.78461771  0.21561739  0.96119445  1
  O  O13  1  0.98801821  0.57281091  0.75000012  1
  O  O14  1  0.01198214  0.42718991  0.25000004  1
  O  O15  1  0.48801804  0.92719032  0.75000012  1
  O  O16  1  0.71538283  0.71561780  0.46119437  1
  O  O17  1  0.51198232  0.07281050  0.25000004  1
  O  O18  1  0.71538283  0.71561780  0.03880571  1
  O  O19  1  0.78461771  0.21561739  0.53880578  1
