# generated using pymatgen
data_Be2OsPd
_symmetry_space_group_name_H-M   'P 1'
_cell_length_a   2.81731562
_cell_length_b   2.81731562
_cell_length_c   5.66953622
_cell_angle_alpha   90.00000000
_cell_angle_beta   90.00000000
_cell_angle_gamma   90.00000000
_symmetry_Int_Tables_number   1
_chemical_formula_structural   Be2OsPd
_chemical_formula_sum   'Be2 Os1 Pd1'
_cell_volume   45.00062448
_cell_formula_units_Z   1
loop_
 _symmetry_equiv_pos_site_id
 _symmetry_equiv_pos_as_xyz
  1  'x, y, z'
loop_
 _atom_site_type_symbol
 _atom_site_label
 _atom_site_symmetry_multiplicity
 _atom_site_fract_x
 _atom_site_fract_y
 _atom_site_fract_z
 _atom_site_occupancy
  Be  Be0  1  0.00000000  0.00000000  0.76171462  1
  Be  Be1  1  0.00000000  0.00000000  0.23828604  1
  Os  Os2  1  0.50000078  0.50000078  0.00000000  1
  Pd  Pd3  1  0.50000078  0.50000078  0.50000033  1
