# generated using pymatgen
data_HfSn2
_symmetry_space_group_name_H-M   'P 1'
_cell_length_a   5.54045805
_cell_length_b   5.54045805
_cell_length_c   7.67945304
_cell_angle_alpha   90.00000000
_cell_angle_beta   90.00000000
_cell_angle_gamma   120.00000000
_symmetry_Int_Tables_number   1
_chemical_formula_structural   HfSn2
_chemical_formula_sum   'Hf3 Sn6'
_cell_volume   204.15135281
_cell_formula_units_Z   3
loop_
 _symmetry_equiv_pos_site_id
 _symmetry_equiv_pos_as_xyz
  1  'x, y, z'
loop_
 _atom_site_type_symbol
 _atom_site_label
 _atom_site_symmetry_multiplicity
 _atom_site_fract_x
 _atom_site_fract_y
 _atom_site_fract_z
 _atom_site_occupancy
  Hf  Hf0  1  0.50000018  0.50000018  0.00000000  1
  Hf  Hf1  1  -0.00000005  0.50000022  0.66666640  1
  Hf  Hf2  1  0.50000022  -0.00000005  0.33333320  1
  Sn  Sn3  1  0.83165763  0.16834273  0.00000000  1
  Sn  Sn4  1  0.33668559  0.16834277  0.66666640  1
  Sn  Sn5  1  0.83165758  0.66331476  0.33333320  1
  Sn  Sn6  1  0.16834273  0.83165763  0.00000000  1
  Sn  Sn7  1  0.66331476  0.83165758  0.66666640  1
  Sn  Sn8  1  0.16834277  0.33668559  0.33333320  1
