# generated using pymatgen
data_ZrCu2Te3
_symmetry_space_group_name_H-M   'P 1'
_cell_length_a   10.43477460
_cell_length_b   10.43477460
_cell_length_c   7.32880705
_cell_angle_alpha   82.00225534
_cell_angle_beta   82.00225534
_cell_angle_gamma   22.57114196
_symmetry_Int_Tables_number   1
_chemical_formula_structural   ZrCu2Te3
_chemical_formula_sum   'Zr2 Cu4 Te6'
_cell_volume   303.19572464
_cell_formula_units_Z   2
loop_
 _symmetry_equiv_pos_site_id
 _symmetry_equiv_pos_as_xyz
  1  'x, y, z'
loop_
 _atom_site_type_symbol
 _atom_site_label
 _atom_site_symmetry_multiplicity
 _atom_site_fract_x
 _atom_site_fract_y
 _atom_site_fract_z
 _atom_site_occupancy
  Zr  Zr0  1  0.64566365  0.64566365  0.94632806  1
  Zr  Zr1  1  0.35433671  0.35433671  0.05367328  1
  Cu  Cu2  1  0.71292466  0.71292466  0.57299976  1
  Cu  Cu3  1  0.28707570  0.28707570  0.42700158  1
  Cu  Cu4  1  0.04846540  0.04846540  0.85068798  1
  Cu  Cu5  1  0.95153496  0.95153496  0.14931337  1
  Te  Te6  1  0.75056085  0.75056085  0.21632116  1
  Te  Te7  1  0.24943951  0.24943951  0.78368018  1
  Te  Te8  1  0.58296044  0.58296044  0.63281931  1
  Te  Te9  1  0.41703992  0.41703992  0.36718204  1
  Te  Te10  1  0.08097215  0.08097215  0.18344898  1
  Te  Te11  1  0.91902820  0.91902820  0.81655237  1
