# generated using pymatgen
data_Be2InOs
_symmetry_space_group_name_H-M   'P 1'
_cell_length_a   4.03244561
_cell_length_b   4.03244561
_cell_length_c   3.14358073
_cell_angle_alpha   90.00000000
_cell_angle_beta   90.00000000
_cell_angle_gamma   89.98765993
_symmetry_Int_Tables_number   1
_chemical_formula_structural   Be2InOs
_chemical_formula_sum   'Be2 In1 Os1'
_cell_volume   51.11656312
_cell_formula_units_Z   1
loop_
 _symmetry_equiv_pos_site_id
 _symmetry_equiv_pos_as_xyz
  1  'x, y, z'
loop_
 _atom_site_type_symbol
 _atom_site_label
 _atom_site_symmetry_multiplicity
 _atom_site_fract_x
 _atom_site_fract_y
 _atom_site_fract_z
 _atom_site_occupancy
  Be  Be0  1  0.00000000  0.00000000  0.00000000  1
  Be  Be1  1  0.50000058  0.50000058  0.00000000  1
  In  In2  1  0.50000007  0.00000052  0.49999988  1
  Os  Os3  1  0.00000052  0.50000007  0.49999988  1
