# generated using pymatgen
data_BaLi4Cr
_symmetry_space_group_name_H-M   'P 1'
_cell_length_a   5.68113903
_cell_length_b   5.68113903
_cell_length_c   5.68113903
_cell_angle_alpha   60.00000000
_cell_angle_beta   60.00000000
_cell_angle_gamma   60.00000000
_symmetry_Int_Tables_number   1
_chemical_formula_structural   BaLi4Cr
_chemical_formula_sum   'Ba1 Li4 Cr1'
_cell_volume   129.65559301
_cell_formula_units_Z   1
loop_
 _symmetry_equiv_pos_site_id
 _symmetry_equiv_pos_as_xyz
  1  'x, y, z'
loop_
 _atom_site_type_symbol
 _atom_site_label
 _atom_site_symmetry_multiplicity
 _atom_site_fract_x
 _atom_site_fract_y
 _atom_site_fract_z
 _atom_site_occupancy
  Ba  Ba0  1  0.24999988  0.24999988  0.24999988  1
  Li  Li1  1  0.10965769  0.63011378  0.63011378  1
  Li  Li2  1  0.63011378  0.63011378  0.63011378  1
  Li  Li3  1  0.63011378  0.10965769  0.63011378  1
  Li  Li4  1  0.63011378  0.63011378  0.10965769  1
  Cr  Cr5  1  0.00000000  0.00000000  0.00000000  1
