# generated using pymatgen
data_Er5Pb3
_symmetry_space_group_name_H-M   'P 1'
_cell_length_a   8.92979885
_cell_length_b   8.92979885
_cell_length_c   6.52389577
_cell_angle_alpha   90.00000000
_cell_angle_beta   90.00000000
_cell_angle_gamma   120.00013007
_symmetry_Int_Tables_number   1
_chemical_formula_structural   Er5Pb3
_chemical_formula_sum   'Er10 Pb6'
_cell_volume   450.52659029
_cell_formula_units_Z   2
loop_
 _symmetry_equiv_pos_site_id
 _symmetry_equiv_pos_as_xyz
  1  'x, y, z'
loop_
 _atom_site_type_symbol
 _atom_site_label
 _atom_site_symmetry_multiplicity
 _atom_site_fract_x
 _atom_site_fract_y
 _atom_site_fract_z
 _atom_site_occupancy
  Er  Er0  1  0.33333230  0.66666755  0.00000000  1
  Er  Er1  1  0.66666755  0.33333230  0.50000032  1
  Er  Er2  1  0.66666755  0.33333230  0.00000000  1
  Er  Er3  1  0.33333230  0.66666755  0.50000032  1
  Er  Er4  1  0.23555691  0.00000163  0.25000016  1
  Er  Er5  1  0.00000163  0.23555691  0.25000016  1
  Er  Er6  1  0.76444145  0.76444145  0.25000016  1
  Er  Er7  1  0.76444295  0.99999822  0.75000049  1
  Er  Er8  1  0.99999822  0.76444295  0.75000049  1
  Er  Er9  1  0.23555841  0.23555841  0.75000049  1
  Pb  Pb10  1  0.60554996  0.00000131  0.25000016  1
  Pb  Pb11  1  0.00000131  0.60554996  0.25000016  1
  Pb  Pb12  1  0.39445464  0.39445464  0.25000016  1
  Pb  Pb13  1  0.39444990  0.99999854  0.75000049  1
  Pb  Pb14  1  0.99999854  0.39444990  0.75000049  1
  Pb  Pb15  1  0.60554521  0.60554521  0.75000049  1
