# generated using pymatgen
data_BeIr2Se
_symmetry_space_group_name_H-M   'P 1'
_cell_length_a   5.03735253
_cell_length_b   5.03735253
_cell_length_c   5.03735253
_cell_angle_alpha   137.81783658
_cell_angle_beta   137.81783658
_cell_angle_gamma   61.18210507
_symmetry_Int_Tables_number   1
_chemical_formula_structural   BeIr2Se
_chemical_formula_sum   'Be1 Ir2 Se1'
_cell_volume   56.99371671
_cell_formula_units_Z   1
loop_
 _symmetry_equiv_pos_site_id
 _symmetry_equiv_pos_as_xyz
  1  'x, y, z'
loop_
 _atom_site_type_symbol
 _atom_site_label
 _atom_site_symmetry_multiplicity
 _atom_site_fract_x
 _atom_site_fract_y
 _atom_site_fract_z
 _atom_site_occupancy
  Be  Be0  1  0.75000011  0.24999992  0.50000019  1
  Ir  Ir1  1  0.00000000  0.00000000  0.00000000  1
  Ir  Ir2  1  0.24999992  0.75000011  0.50000019  1
  Se  Se3  1  0.49999984  0.49999984  0.00000000  1
