# generated using pymatgen
data_Ba(CuSe)2
_symmetry_space_group_name_H-M   'P 1'
_cell_length_a   4.23680859
_cell_length_b   9.56079964
_cell_length_c   10.90603072
_cell_angle_alpha   90.00000000
_cell_angle_beta   90.00000000
_cell_angle_gamma   90.00000000
_symmetry_Int_Tables_number   1
_chemical_formula_structural   Ba(CuSe)2
_chemical_formula_sum   'Ba4 Cu8 Se8'
_cell_volume   441.77361905
_cell_formula_units_Z   4
loop_
 _symmetry_equiv_pos_site_id
 _symmetry_equiv_pos_as_xyz
  1  'x, y, z'
loop_
 _atom_site_type_symbol
 _atom_site_label
 _atom_site_symmetry_multiplicity
 _atom_site_fract_x
 _atom_site_fract_y
 _atom_site_fract_z
 _atom_site_occupancy
  Ba  Ba0  1  0.75000025  0.25931039  0.67681447  1
  Ba  Ba1  1  0.25000008  0.24068963  0.17681450  1
  Ba  Ba2  1  0.25000008  0.74068965  0.32318547  1
  Ba  Ba3  1  0.75000025  0.75931041  0.82318543  1
  Cu  Cu4  1  0.75000025  0.92190120  0.54266727  1
  Cu  Cu5  1  0.25000008  0.57809886  0.04266730  1
  Cu  Cu6  1  0.75000025  0.42190118  0.95733263  1
  Cu  Cu7  1  0.25000008  0.07809884  0.45733266  1
  Cu  Cu8  1  0.75000025  0.93950228  0.11489916  1
  Cu  Cu9  1  0.75000025  0.43950226  0.38510081  1
  Cu  Cu10  1  0.25000008  0.06049776  0.88510078  1
  Cu  Cu11  1  0.25000008  0.56049777  0.61489913  1
  Se  Se12  1  0.25000008  0.84132722  0.03871886  1
  Se  Se13  1  0.25000008  0.47745681  0.83011534  1
  Se  Se14  1  0.75000025  0.02254321  0.33011537  1
  Se  Se15  1  0.75000025  0.52254323  0.16988460  1
  Se  Se16  1  0.25000008  0.97745682  0.66988457  1
  Se  Se17  1  0.75000025  0.15867281  0.96128107  1
  Se  Se18  1  0.25000008  0.34132721  0.46128111  1
  Se  Se19  1  0.75000025  0.65867283  0.53871883  1
