# generated using pymatgen
data_LuNiP
_symmetry_space_group_name_H-M   'P 1'
_cell_length_a   3.86662378
_cell_length_b   3.86662378
_cell_length_c   14.81244716
_cell_angle_alpha   90.00000000
_cell_angle_beta   90.00000000
_cell_angle_gamma   119.99982332
_symmetry_Int_Tables_number   1
_chemical_formula_structural   LuNiP
_chemical_formula_sum   'Lu4 Ni4 P4'
_cell_volume   191.78827512
_cell_formula_units_Z   4
loop_
 _symmetry_equiv_pos_site_id
 _symmetry_equiv_pos_as_xyz
  1  'x, y, z'
loop_
 _atom_site_type_symbol
 _atom_site_label
 _atom_site_symmetry_multiplicity
 _atom_site_fract_x
 _atom_site_fract_y
 _atom_site_fract_z
 _atom_site_occupancy
  Lu  Lu0  1  0.00000000  0.00000000  0.00000000  1
  Lu  Lu1  1  0.00000000  0.00000000  0.50000010  1
  Lu  Lu2  1  0.00000143  -0.00000143  0.25000005  1
  Lu  Lu3  1  -0.00000143  0.00000143  0.75000014  1
  Ni  Ni4  1  0.33333714  0.66666438  0.13155047  1
  Ni  Ni5  1  0.66666438  0.33333714  0.63155056  1
  Ni  Ni6  1  0.66666438  0.33333714  0.86844972  1
  Ni  Ni7  1  0.33333714  0.66666438  0.36844963  1
  P  P8  1  0.33333651  0.66666502  0.62102161  1
  P  P9  1  0.66666502  0.33333651  0.12102152  1
  P  P10  1  0.66666502  0.33333651  0.37897858  1
  P  P11  1  0.33333651  0.66666502  0.87897867  1
