# generated using pymatgen
data_MnBe2Cr
_symmetry_space_group_name_H-M   'P 1'
_cell_length_a   3.78323065
_cell_length_b   3.78323065
_cell_length_c   3.78323065
_cell_angle_alpha   119.99854068
_cell_angle_beta   119.99854068
_cell_angle_gamma   90.00252764
_symmetry_Int_Tables_number   1
_chemical_formula_structural   MnBe2Cr
_chemical_formula_sum   'Mn1 Be2 Cr1'
_cell_volume   38.28979482
_cell_formula_units_Z   1
loop_
 _symmetry_equiv_pos_site_id
 _symmetry_equiv_pos_as_xyz
  1  'x, y, z'
loop_
 _atom_site_type_symbol
 _atom_site_label
 _atom_site_symmetry_multiplicity
 _atom_site_fract_x
 _atom_site_fract_y
 _atom_site_fract_z
 _atom_site_occupancy
  Mn  Mn0  1  0.75000087  0.25000009  0.50000078  1
  Be  Be1  1  0.00000000  0.00000000  0.00000000  1
  Be  Be2  1  0.25000009  0.75000087  0.50000078  1
  Cr  Cr3  1  0.50000018  0.50000018  0.00000000  1
