# generated using pymatgen
data_YBePb
_symmetry_space_group_name_H-M   'P 1'
_cell_length_a   4.23375488
_cell_length_b   4.23375488
_cell_length_c   4.21301886
_cell_angle_alpha   90.00000000
_cell_angle_beta   90.00000000
_cell_angle_gamma   119.99999392
_symmetry_Int_Tables_number   1
_chemical_formula_structural   YBePb
_chemical_formula_sum   'Y1 Be1 Pb1'
_cell_volume   65.39965872
_cell_formula_units_Z   1
loop_
 _symmetry_equiv_pos_site_id
 _symmetry_equiv_pos_as_xyz
  1  'x, y, z'
loop_
 _atom_site_type_symbol
 _atom_site_label
 _atom_site_symmetry_multiplicity
 _atom_site_fract_x
 _atom_site_fract_y
 _atom_site_fract_z
 _atom_site_occupancy
  Y  Y0  1  0.33333352  0.66666760  0.66666451  1
  Be  Be1  1  0.00000000  0.00000000  0.16660150  1
  Pb  Pb2  1  0.66666760  0.33333352  0.16673426  1
