# generated using pymatgen
data_BeNiSb2
_symmetry_space_group_name_H-M   'P 1'
_cell_length_a   3.13288018
_cell_length_b   3.13288018
_cell_length_c   7.81736971
_cell_angle_alpha   90.00000000
_cell_angle_beta   90.00000000
_cell_angle_gamma   90.00000000
_symmetry_Int_Tables_number   1
_chemical_formula_structural   BeNiSb2
_chemical_formula_sum   'Be1 Ni1 Sb2'
_cell_volume   76.72700067
_cell_formula_units_Z   1
loop_
 _symmetry_equiv_pos_site_id
 _symmetry_equiv_pos_as_xyz
  1  'x, y, z'
loop_
 _atom_site_type_symbol
 _atom_site_label
 _atom_site_symmetry_multiplicity
 _atom_site_fract_x
 _atom_site_fract_y
 _atom_site_fract_z
 _atom_site_occupancy
  Be  Be0  1  0.00000000  0.00000000  0.57306447  1
  Ni  Ni1  1  0.49999997  0.49999997  0.68066333  1
  Sb  Sb2  1  0.00000000  0.00000000  0.90085778  1
  Sb  Sb3  1  0.49999997  0.49999997  0.34541551  1
