# generated using pymatgen
data_ScB2Ir3
_symmetry_space_group_name_H-M   'P 1'
_cell_length_a   5.44430499
_cell_length_b   5.44430499
_cell_length_c   3.07775918
_cell_angle_alpha   89.99951706
_cell_angle_beta   89.99951706
_cell_angle_gamma   119.99844221
_symmetry_Int_Tables_number   1
_chemical_formula_structural   ScB2Ir3
_chemical_formula_sum   'Sc1 B2 Ir3'
_cell_volume   79.00543645
_cell_formula_units_Z   1
loop_
 _symmetry_equiv_pos_site_id
 _symmetry_equiv_pos_as_xyz
  1  'x, y, z'
loop_
 _atom_site_type_symbol
 _atom_site_label
 _atom_site_symmetry_multiplicity
 _atom_site_fract_x
 _atom_site_fract_y
 _atom_site_fract_z
 _atom_site_occupancy
  Sc  Sc0  1  0.49999939  0.49999939  0.49999852  1
  B  B1  1  0.16667308  0.83332570  0.49999852  1
  B  B2  1  0.83332570  0.16667308  0.49999852  1
  Ir  Ir3  1  0.00000000  0.00000000  0.00000000  1
  Ir  Ir4  1  0.49999976  -0.00000030  -0.00000041  1
  Ir  Ir5  1  -0.00000030  0.49999976  -0.00000041  1
