# generated using pymatgen
data_PbS
_symmetry_space_group_name_H-M   'P 1'
_cell_length_a   5.85955035
_cell_length_b   6.10271936
_cell_length_c   6.90822174
_cell_angle_alpha   90.00000000
_cell_angle_beta   90.00000000
_cell_angle_gamma   90.00000000
_symmetry_Int_Tables_number   1
_chemical_formula_structural   PbS
_chemical_formula_sum   'Pb4 S4'
_cell_volume   247.03242339
_cell_formula_units_Z   4
loop_
 _symmetry_equiv_pos_site_id
 _symmetry_equiv_pos_as_xyz
  1  'x, y, z'
loop_
 _atom_site_type_symbol
 _atom_site_label
 _atom_site_symmetry_multiplicity
 _atom_site_fract_x
 _atom_site_fract_y
 _atom_site_fract_z
 _atom_site_occupancy
  Pb  Pb0  1  0.33491510  0.99135028  0.74999981  1
  Pb  Pb1  1  0.66508484  0.99135028  0.24999994  1
  Pb  Pb2  1  0.17143005  0.44573069  0.24999994  1
  Pb  Pb3  1  0.82856989  0.44573069  0.74999981  1
  S  S4  1  0.00000000  0.11457325  0.49999987  1
  S  S5  1  0.00000000  0.11457325  0.00000000  1
  S  S6  1  0.27396654  0.56574600  0.74999981  1
  S  S7  1  0.72603340  0.56574600  0.24999994  1
