# generated using pymatgen
data_HoAlAu
_symmetry_space_group_name_H-M   'P 1'
_cell_length_a   4.44458226
_cell_length_b   7.15492502
_cell_length_c   7.76545307
_cell_angle_alpha   90.00000000
_cell_angle_beta   90.00000000
_cell_angle_gamma   90.00000000
_symmetry_Int_Tables_number   1
_chemical_formula_structural   HoAlAu
_chemical_formula_sum   'Ho4 Al4 Au4'
_cell_volume   246.94647698
_cell_formula_units_Z   4
loop_
 _symmetry_equiv_pos_site_id
 _symmetry_equiv_pos_as_xyz
  1  'x, y, z'
loop_
 _atom_site_type_symbol
 _atom_site_label
 _atom_site_symmetry_multiplicity
 _atom_site_fract_x
 _atom_site_fract_y
 _atom_site_fract_z
 _atom_site_occupancy
  Ho  Ho0  1  0.24999987  0.00852002  0.30254077  1
  Ho  Ho1  1  0.74999962  0.49148033  0.80254058  1
  Ho  Ho2  1  0.74999962  0.99148068  0.69745883  1
  Ho  Ho3  1  0.24999987  0.50852036  0.19745903  1
  Al  Al4  1  0.24999987  0.17555492  0.92062627  1
  Al  Al5  1  0.74999962  0.32444543  0.42062646  1
  Al  Al6  1  0.74999962  0.82444578  0.07937334  1
  Al  Al7  1  0.24999987  0.67555527  0.57937314  1
  Au  Au8  1  0.24999987  0.28604857  0.59407960  1
  Au  Au9  1  0.74999962  0.21395178  0.09407980  1
  Au  Au10  1  0.74999962  0.71395213  0.40592001  1
  Au  Au11  1  0.24999987  0.78604892  0.90591981  1
