# generated using pymatgen
data_SrBe2Tc
_symmetry_space_group_name_H-M   'P 1'
_cell_length_a   5.13352597
_cell_length_b   5.13352597
_cell_length_c   5.13352597
_cell_angle_alpha   135.10802466
_cell_angle_beta   135.10802466
_cell_angle_gamma   65.36239984
_symmetry_Int_Tables_number   1
_chemical_formula_structural   SrBe2Tc
_chemical_formula_sum   'Sr1 Be2 Tc1'
_cell_volume   66.39850653
_cell_formula_units_Z   1
loop_
 _symmetry_equiv_pos_site_id
 _symmetry_equiv_pos_as_xyz
  1  'x, y, z'
loop_
 _atom_site_type_symbol
 _atom_site_label
 _atom_site_symmetry_multiplicity
 _atom_site_fract_x
 _atom_site_fract_y
 _atom_site_fract_z
 _atom_site_occupancy
  Sr  Sr0  1  0.50000032  0.50000032  0.00000000  1
  Be  Be1  1  0.00000000  0.00000000  0.00000000  1
  Be  Be2  1  0.25000016  0.74999927  0.49999911  1
  Tc  Tc3  1  0.74999927  0.25000016  0.49999911  1
