# generated using pymatgen
data_Sc(FeGe)6
_symmetry_space_group_name_H-M   'P 1'
_cell_length_a   5.03649567
_cell_length_b   5.03648991
_cell_length_c   7.96682906
_cell_angle_alpha   90.00000000
_cell_angle_beta   90.00000000
_cell_angle_gamma   120.00003781
_symmetry_Int_Tables_number   1
_chemical_formula_structural   Sc(FeGe)6
_chemical_formula_sum   'Sc1 Fe6 Ge6'
_cell_volume   175.01384176
_cell_formula_units_Z   1
loop_
 _symmetry_equiv_pos_site_id
 _symmetry_equiv_pos_as_xyz
  1  'x, y, z'
loop_
 _atom_site_type_symbol
 _atom_site_label
 _atom_site_symmetry_multiplicity
 _atom_site_fract_x
 _atom_site_fract_y
 _atom_site_fract_z
 _atom_site_occupancy
  Sc  Sc0  1  0.00000000  0.00000000  0.00000000  1
  Fe  Fe1  1  -0.00000021  0.49999980  0.24933914  1
  Fe  Fe2  1  0.49999982  0.50000020  0.24933914  1
  Fe  Fe3  1  0.50000003  0.00000040  0.24934369  1
  Fe  Fe4  1  0.49999982  0.50000020  0.75066098  1
  Fe  Fe5  1  -0.00000021  0.49999980  0.75066098  1
  Fe  Fe6  1  0.50000003  0.00000040  0.75065642  1
  Ge  Ge7  1  0.66666422  0.33332904  0.00000000  1
  Ge  Ge8  1  0.33333542  0.66667136  0.00000000  1
  Ge  Ge9  1  0.66667003  0.33334067  0.50000006  1
  Ge  Ge10  1  0.33332960  0.66665973  0.50000006  1
  Ge  Ge11  1  0.00000000  0.00000000  0.34008640  1
  Ge  Ge12  1  0.00000000  0.00000000  0.65991372  1
