# generated using pymatgen
data_DyInPd
_symmetry_space_group_name_H-M   'P 1'
_cell_length_a   7.69996398
_cell_length_b   7.69996398
_cell_length_c   3.81995168
_cell_angle_alpha   90.00000000
_cell_angle_beta   90.00000000
_cell_angle_gamma   119.99998709
_symmetry_Int_Tables_number   1
_chemical_formula_structural   DyInPd
_chemical_formula_sum   'Dy3 In3 Pd3'
_cell_volume   196.13989795
_cell_formula_units_Z   3
loop_
 _symmetry_equiv_pos_site_id
 _symmetry_equiv_pos_as_xyz
  1  'x, y, z'
loop_
 _atom_site_type_symbol
 _atom_site_label
 _atom_site_symmetry_multiplicity
 _atom_site_fract_x
 _atom_site_fract_y
 _atom_site_fract_z
 _atom_site_occupancy
  Dy  Dy0  1  0.59344758  0.00000056  0.49999978  1
  Dy  Dy1  1  0.00000056  0.59344758  0.49999978  1
  Dy  Dy2  1  0.40655178  0.40655178  0.49999978  1
  In  In3  1  0.26139166  0.00000007  0.00000000  1
  In  In4  1  0.00000007  0.26139166  0.00000000  1
  In  In5  1  0.73860706  0.73860706  0.00000000  1
  Pd  Pd6  1  0.33333329  0.66666654  0.00000000  1
  Pd  Pd7  1  0.66666654  0.33333329  0.00000000  1
  Pd  Pd8  1  0.99999859  0.99999859  0.49999978  1
