# generated using pymatgen
data_LaSi2
_symmetry_space_group_name_H-M   'P 1'
_cell_length_a   7.58212112
_cell_length_b   7.58212112
_cell_length_c   7.58212112
_cell_angle_alpha   146.55421668
_cell_angle_beta   146.55421668
_cell_angle_gamma   48.02429373
_symmetry_Int_Tables_number   1
_chemical_formula_structural   LaSi2
_chemical_formula_sum   'La2 Si4'
_cell_volume   131.86555962
_cell_formula_units_Z   2
loop_
 _symmetry_equiv_pos_site_id
 _symmetry_equiv_pos_as_xyz
  1  'x, y, z'
loop_
 _atom_site_type_symbol
 _atom_site_label
 _atom_site_symmetry_multiplicity
 _atom_site_fract_x
 _atom_site_fract_y
 _atom_site_fract_z
 _atom_site_occupancy
  La  La0  1  0.00000000  0.00000000  0.00000000  1
  La  La1  1  0.25000006  0.74999922  0.49999916  1
  Si  Si2  1  0.58494211  0.58494211  0.00000000  1
  Si  Si3  1  0.83494122  0.33494205  0.49999916  1
  Si  Si4  1  0.66505723  0.16505806  0.49999916  1
  Si  Si5  1  0.41505812  0.41505812  0.00000000  1
