# generated using pymatgen
data_LaCrO3
_symmetry_space_group_name_H-M   'P 1'
_cell_length_a   5.46309853
_cell_length_b   5.46309853
_cell_length_c   5.46309853
_cell_angle_alpha   61.29720218
_cell_angle_beta   61.29720218
_cell_angle_gamma   61.29720218
_symmetry_Int_Tables_number   1
_chemical_formula_structural   LaCrO3
_chemical_formula_sum   'La2 Cr2 O6'
_cell_volume   118.65471293
_cell_formula_units_Z   2
loop_
 _symmetry_equiv_pos_site_id
 _symmetry_equiv_pos_as_xyz
  1  'x, y, z'
loop_
 _atom_site_type_symbol
 _atom_site_label
 _atom_site_symmetry_multiplicity
 _atom_site_fract_x
 _atom_site_fract_y
 _atom_site_fract_z
 _atom_site_occupancy
  La  La0  1  0.75000049  0.75000049  0.74999885  1
  La  La1  1  0.25000016  0.25000016  0.24999962  1
  Cr  Cr2  1  0.00000000  0.00000000  0.00000000  1
  Cr  Cr3  1  0.50000033  0.50000033  0.49999923  1
  O  O4  1  0.18242742  0.31757288  0.74999938  1
  O  O5  1  0.31757321  0.75000027  0.18242659  1
  O  O6  1  0.75000020  0.18242767  0.31757211  1
  O  O7  1  0.81757324  0.68242778  0.24999908  1
  O  O8  1  0.68242745  0.25000038  0.81757187  1
  O  O9  1  0.25000046  0.81757299  0.68242635  1
