# generated using pymatgen
data_LaNiO3
_symmetry_space_group_name_H-M   'P 1'
_cell_length_a   5.38370364
_cell_length_b   5.38370364
_cell_length_c   5.38370364
_cell_angle_alpha   61.21092292
_cell_angle_beta   61.21092292
_cell_angle_gamma   61.21092292
_symmetry_Int_Tables_number   1
_chemical_formula_structural   LaNiO3
_chemical_formula_sum   'La2 Ni2 O6'
_cell_volume   113.34411065
_cell_formula_units_Z   2
loop_
 _symmetry_equiv_pos_site_id
 _symmetry_equiv_pos_as_xyz
  1  'x, y, z'
loop_
 _atom_site_type_symbol
 _atom_site_label
 _atom_site_symmetry_multiplicity
 _atom_site_fract_x
 _atom_site_fract_y
 _atom_site_fract_z
 _atom_site_occupancy
  La  La0  1  0.25000042  0.25000042  0.24999971  1
  La  La1  1  0.75000126  0.75000126  0.74999914  1
  Ni  Ni2  1  0.00000000  0.00000000  0.00000000  1
  Ni  Ni3  1  0.50000084  0.50000084  0.49999943  1
  O  O4  1  0.80324406  0.69675774  0.24999951  1
  O  O5  1  0.25000099  0.80324419  0.69675611  1
  O  O6  1  0.69675789  0.25000102  0.80324237  1
  O  O7  1  0.19675762  0.30324395  0.74999934  1
  O  O8  1  0.75000069  0.19675750  0.30324274  1
  O  O9  1  0.30324379  0.75000066  0.19675648  1
