# generated using pymatgen
data_SrBeSn4
_symmetry_space_group_name_H-M   'P 1'
_cell_length_a   6.24637520
_cell_length_b   6.24637520
_cell_length_c   6.24637520
_cell_angle_alpha   60.00000000
_cell_angle_beta   60.00000000
_cell_angle_gamma   60.00000000
_symmetry_Int_Tables_number   1
_chemical_formula_structural   SrBeSn4
_chemical_formula_sum   'Sr1 Be1 Sn4'
_cell_volume   172.33329974
_cell_formula_units_Z   1
loop_
 _symmetry_equiv_pos_site_id
 _symmetry_equiv_pos_as_xyz
  1  'x, y, z'
loop_
 _atom_site_type_symbol
 _atom_site_label
 _atom_site_symmetry_multiplicity
 _atom_site_fract_x
 _atom_site_fract_y
 _atom_site_fract_z
 _atom_site_occupancy
  Sr  Sr0  1  0.24999976  0.24999976  0.24999976  1
  Be  Be1  1  0.00000000  0.00000000  0.00000000  1
  Sn  Sn2  1  0.12443334  0.62518824  0.62518824  1
  Sn  Sn3  1  0.62518824  0.62518824  0.62518824  1
  Sn  Sn4  1  0.62518824  0.12443334  0.62518824  1
  Sn  Sn5  1  0.62518824  0.62518824  0.12443334  1
