# generated using pymatgen
data_K2BeTc
_symmetry_space_group_name_H-M   'P 1'
_cell_length_a   6.19816721
_cell_length_b   6.19816721
_cell_length_c   6.19816721
_cell_angle_alpha   143.45654882
_cell_angle_beta   143.45654882
_cell_angle_gamma   52.64072183
_symmetry_Int_Tables_number   1
_chemical_formula_structural   K2BeTc
_chemical_formula_sum   'K2 Be1 Tc1'
_cell_volume   83.91866272
_cell_formula_units_Z   1
loop_
 _symmetry_equiv_pos_site_id
 _symmetry_equiv_pos_as_xyz
  1  'x, y, z'
loop_
 _atom_site_type_symbol
 _atom_site_label
 _atom_site_symmetry_multiplicity
 _atom_site_fract_x
 _atom_site_fract_y
 _atom_site_fract_z
 _atom_site_occupancy
  K  K0  1  0.00000000  0.00000000  0.00000000  1
  K  K1  1  0.50000031  0.50000031  0.00000000  1
  Be  Be2  1  0.74999925  0.25000016  0.49999909  1
  Tc  Tc3  1  0.25000016  0.74999925  0.49999909  1
