# generated using pymatgen
data_BaCrCl2
_symmetry_space_group_name_H-M   'P 1'
_cell_length_a   4.19550355
_cell_length_b   4.19550355
_cell_length_c   6.32331474
_cell_angle_alpha   90.00000000
_cell_angle_beta   90.00000000
_cell_angle_gamma   90.00000000
_symmetry_Int_Tables_number   1
_chemical_formula_structural   BaCrCl2
_chemical_formula_sum   'Ba1 Cr1 Cl2'
_cell_volume   111.30456732
_cell_formula_units_Z   1
loop_
 _symmetry_equiv_pos_site_id
 _symmetry_equiv_pos_as_xyz
  1  'x, y, z'
loop_
 _atom_site_type_symbol
 _atom_site_label
 _atom_site_symmetry_multiplicity
 _atom_site_fract_x
 _atom_site_fract_y
 _atom_site_fract_z
 _atom_site_occupancy
  Ba  Ba0  1  0.49999958  0.49999958  0.79439060  1
  Cr  Cr1  1  0.00000000  0.00000000  0.40979465  1
  Cl  Cl2  1  0.00000000  0.00000000  0.99041532  1
  Cl  Cl3  1  0.49999958  0.49999958  0.30539755  1
