# generated using pymatgen
data_Y2BeSe
_symmetry_space_group_name_H-M   'P 1'
_cell_length_a   4.04177112
_cell_length_b   4.04177112
_cell_length_c   5.72297225
_cell_angle_alpha   90.00000000
_cell_angle_beta   90.00000000
_cell_angle_gamma   90.00000000
_symmetry_Int_Tables_number   1
_chemical_formula_structural   Y2BeSe
_chemical_formula_sum   'Y2 Be1 Se1'
_cell_volume   93.48998141
_cell_formula_units_Z   1
loop_
 _symmetry_equiv_pos_site_id
 _symmetry_equiv_pos_as_xyz
  1  'x, y, z'
loop_
 _atom_site_type_symbol
 _atom_site_label
 _atom_site_symmetry_multiplicity
 _atom_site_fract_x
 _atom_site_fract_y
 _atom_site_fract_z
 _atom_site_occupancy
  Y  Y0  1  0.00000000  0.00000000  0.87501066  1
  Y  Y1  1  0.49999986  0.49999986  0.37501376  1
  Be  Be2  1  0.00000000  0.00000000  0.37497835  1
  Se  Se3  1  0.49999986  0.49999986  0.87499625  1
