# generated using pymatgen
data_CaBi2(CO4)2
_symmetry_space_group_name_H-M   'P 1'
_cell_length_a   3.34816175
_cell_length_b   4.57595515
_cell_length_c   11.34611086
_cell_angle_alpha   78.36635990
_cell_angle_beta   81.51522085
_cell_angle_gamma   90.00000000
_symmetry_Int_Tables_number   1
_chemical_formula_structural   CaBi2(CO4)2
_chemical_formula_sum   'Ca1 Bi2 C2 O8'
_cell_volume   168.32016407
_cell_formula_units_Z   1
loop_
 _symmetry_equiv_pos_site_id
 _symmetry_equiv_pos_as_xyz
  1  'x, y, z'
loop_
 _atom_site_type_symbol
 _atom_site_label
 _atom_site_symmetry_multiplicity
 _atom_site_fract_x
 _atom_site_fract_y
 _atom_site_fract_z
 _atom_site_occupancy
  Ca  Ca0  1  0.49999974  0.50000053  0.00000000  1
  Bi  Bi1  1  0.31018196  0.31018275  0.37963555  1
  Bi  Bi2  1  0.68981732  0.68981890  0.62036431  1
  C  C3  1  0.09194280  0.09194359  0.81611388  1
  C  C4  1  0.90805649  0.90805807  0.18388598  1
  O  O5  1  0.25411967  0.75412099  0.49176014  1
  O  O6  1  0.74587962  0.24588067  0.50823972  1
  O  O7  1  0.06397687  0.30850996  0.87204573  1
  O  O8  1  0.06397687  0.81944643  0.87204573  1
  O  O9  1  0.93602241  0.18055522  0.12795413  1
  O  O10  1  0.93602241  0.69149170  0.12795413  1
  O  O11  1  0.15210341  0.15210420  0.69579265  1
  O  O12  1  0.84789587  0.84789746  0.30420721  1
