# generated using pymatgen
data_Sr3Tl5
_symmetry_space_group_name_H-M   'P 1'
_cell_length_a   6.93136758
_cell_length_b   6.93136758
_cell_length_c   11.27369903
_cell_angle_alpha   90.00000000
_cell_angle_beta   90.00000000
_cell_angle_gamma   102.59272529
_symmetry_Int_Tables_number   1
_chemical_formula_structural   Sr3Tl5
_chemical_formula_sum   'Sr6 Tl10'
_cell_volume   528.60272394
_cell_formula_units_Z   2
loop_
 _symmetry_equiv_pos_site_id
 _symmetry_equiv_pos_as_xyz
  1  'x, y, z'
loop_
 _atom_site_type_symbol
 _atom_site_label
 _atom_site_symmetry_multiplicity
 _atom_site_fract_x
 _atom_site_fract_y
 _atom_site_fract_z
 _atom_site_occupancy
  Sr  Sr0  1  0.40298970  0.40298970  0.75000006  1
  Sr  Sr1  1  0.59701028  0.59701028  0.25000002  1
  Sr  Sr2  1  0.78922758  0.21077240  0.50000004  1
  Sr  Sr3  1  0.21077240  0.78922758  0.00000000  1
  Sr  Sr4  1  0.21077240  0.78922758  0.50000004  1
  Sr  Sr5  1  0.78922758  0.21077240  0.00000000  1
  Tl  Tl6  1  0.99187343  0.99187343  0.25000002  1
  Tl  Tl7  1  0.00812655  0.00812655  0.75000006  1
  Tl  Tl8  1  0.47920931  0.06125118  0.25000002  1
  Tl  Tl9  1  0.52079067  0.93874880  0.75000006  1
  Tl  Tl10  1  0.06125118  0.47920931  0.25000002  1
  Tl  Tl11  1  0.93874880  0.52079067  0.75000006  1
  Tl  Tl12  1  0.30026847  0.30026847  0.46135758  1
  Tl  Tl13  1  0.69973151  0.69973151  0.96135762  1
  Tl  Tl14  1  0.30026847  0.30026847  0.03864246  1
  Tl  Tl15  1  0.69973151  0.69973151  0.53864251  1
