# generated using pymatgen
data_H2W
_symmetry_space_group_name_H-M   'P 1'
_cell_length_a   3.13008528
_cell_length_b   5.08654394
_cell_length_c   5.34713631
_cell_angle_alpha   90.00000000
_cell_angle_beta   90.00000000
_cell_angle_gamma   90.00000000
_symmetry_Int_Tables_number   1
_chemical_formula_structural   H2W
_chemical_formula_sum   'H8 W4'
_cell_volume   85.13344856
_cell_formula_units_Z   4
loop_
 _symmetry_equiv_pos_site_id
 _symmetry_equiv_pos_as_xyz
  1  'x, y, z'
loop_
 _atom_site_type_symbol
 _atom_site_label
 _atom_site_symmetry_multiplicity
 _atom_site_fract_x
 _atom_site_fract_y
 _atom_site_fract_z
 _atom_site_occupancy
  H  H0  1  0.25000038  0.89067848  0.42348305  1
  H  H1  1  0.75000113  0.60932036  0.92348340  1
  H  H2  1  0.75000113  0.10932074  0.57651764  1
  H  H3  1  0.25000038  0.39067887  0.07651729  1
  H  H4  1  0.25000038  0.03580599  0.84270464  1
  H  H5  1  0.75000113  0.46419363  0.34270430  1
  H  H6  1  0.75000113  0.96419324  0.15729605  1
  H  H7  1  0.25000038  0.53580560  0.65729639  1
  W  W8  1  0.75000113  0.72834669  0.58463940  1
  W  W9  1  0.25000038  0.77165215  0.08463906  1
  W  W10  1  0.25000038  0.27165254  0.41536129  1
  W  W11  1  0.75000113  0.22834707  0.91536163  1
