# generated using pymatgen
data_La2Co3
_symmetry_space_group_name_H-M   'P 1'
_cell_length_a   5.68016324
_cell_length_b   5.68016324
_cell_length_c   7.63170065
_cell_angle_alpha   90.00000000
_cell_angle_beta   90.00000000
_cell_angle_gamma   129.82442413
_symmetry_Int_Tables_number   1
_chemical_formula_structural   La2Co3
_chemical_formula_sum   'La4 Co6'
_cell_volume   189.10811611
_cell_formula_units_Z   2
loop_
 _symmetry_equiv_pos_site_id
 _symmetry_equiv_pos_as_xyz
  1  'x, y, z'
loop_
 _atom_site_type_symbol
 _atom_site_label
 _atom_site_symmetry_multiplicity
 _atom_site_fract_x
 _atom_site_fract_y
 _atom_site_fract_z
 _atom_site_occupancy
  La  La0  1  0.84923980  0.15076204  0.58897804  1
  La  La1  1  0.65076184  0.34924000  0.08897809  1
  La  La2  1  0.34924000  0.65076184  0.91102183  1
  La  La3  1  0.15076204  0.84923980  0.41102187  1
  Co  Co4  1  0.00000000  0.00000000  0.00000000  1
  Co  Co5  1  0.50000092  0.50000092  0.49999996  1
  Co  Co6  1  0.34159234  0.15840858  0.74999994  1
  Co  Co7  1  0.15840858  0.34159234  0.24999998  1
  Co  Co8  1  0.65840950  0.84159326  0.24999998  1
  Co  Co9  1  0.84159326  0.65840950  0.74999994  1
