# generated using pymatgen
data_SrBeOs
_symmetry_space_group_name_H-M   'P 1'
_cell_length_a   3.91235571
_cell_length_b   3.91235571
_cell_length_c   4.58502825
_cell_angle_alpha   90.00000000
_cell_angle_beta   90.00000000
_cell_angle_gamma   120.00000362
_symmetry_Int_Tables_number   1
_chemical_formula_structural   SrBeOs
_chemical_formula_sum   'Sr1 Be1 Os1'
_cell_volume   60.77840522
_cell_formula_units_Z   1
loop_
 _symmetry_equiv_pos_site_id
 _symmetry_equiv_pos_as_xyz
  1  'x, y, z'
loop_
 _atom_site_type_symbol
 _atom_site_label
 _atom_site_symmetry_multiplicity
 _atom_site_fract_x
 _atom_site_fract_y
 _atom_site_fract_z
 _atom_site_occupancy
  Sr  Sr0  1  0.66666760  0.33333355  0.66673311  1
  Be  Be1  1  0.00000000  0.00000000  0.16647781  1
  Os  Os2  1  0.33333355  0.66666760  0.16679046  1
