# generated using pymatgen
data_K2CdPb
_symmetry_space_group_name_H-M   'P 1'
_cell_length_a   6.93732364
_cell_length_b   6.93732364
_cell_length_c   6.50021748
_cell_angle_alpha   90.00000000
_cell_angle_beta   90.00000000
_cell_angle_gamma   103.31207315
_symmetry_Int_Tables_number   1
_chemical_formula_structural   K2CdPb
_chemical_formula_sum   'K4 Cd2 Pb2'
_cell_volume   304.42676174
_cell_formula_units_Z   2
loop_
 _symmetry_equiv_pos_site_id
 _symmetry_equiv_pos_as_xyz
  1  'x, y, z'
loop_
 _atom_site_type_symbol
 _atom_site_label
 _atom_site_symmetry_multiplicity
 _atom_site_fract_x
 _atom_site_fract_y
 _atom_site_fract_z
 _atom_site_occupancy
  K  K0  1  0.97755452  0.31927040  0.75000029  1
  K  K1  1  0.68072870  0.02244458  0.25000010  1
  K  K2  1  0.32957229  0.96739280  0.75000029  1
  K  K3  1  0.03260630  0.67042681  0.25000010  1
  Cd  Cd4  1  0.50513617  0.49486293  0.00000000  1
  Cd  Cd5  1  0.50513617  0.49486293  0.50000019  1
  Pb  Pb6  1  0.78536715  0.77510398  0.75000029  1
  Pb  Pb7  1  0.22489512  0.21463195  0.25000010  1
