# generated using pymatgen
data_SiCl2
_symmetry_space_group_name_H-M   'P 1'
_cell_length_a   3.98083528
_cell_length_b   6.47877689
_cell_length_c   12.64994801
_cell_angle_alpha   90.00000000
_cell_angle_beta   90.00000000
_cell_angle_gamma   90.00000000
_symmetry_Int_Tables_number   1
_chemical_formula_structural   SiCl2
_chemical_formula_sum   'Si4 Cl8'
_cell_volume   326.25409612
_cell_formula_units_Z   4
loop_
 _symmetry_equiv_pos_site_id
 _symmetry_equiv_pos_as_xyz
  1  'x, y, z'
loop_
 _atom_site_type_symbol
 _atom_site_label
 _atom_site_symmetry_multiplicity
 _atom_site_fract_x
 _atom_site_fract_y
 _atom_site_fract_z
 _atom_site_occupancy
  Si  Si0  1  0.49908804  0.34492018  0.51269337  1
  Si  Si1  1  0.00091255  0.65508030  0.01269329  1
  Si  Si2  1  0.50091315  0.84492042  0.98730687  1
  Si  Si3  1  0.99908863  0.15508006  0.48730679  1
  Cl  Cl4  1  0.49929296  0.58560057  0.40557708  1
  Cl  Cl5  1  0.00070763  0.41439991  0.90557715  1
  Cl  Cl6  1  0.50070822  0.08560033  0.09442300  1
  Cl  Cl7  1  0.99929356  0.91440015  0.59442308  1
  Cl  Cl8  1  0.49905103  0.45364145  0.66630307  1
  Cl  Cl9  1  0.00094956  0.54635903  0.16630299  1
  Cl  Cl10  1  0.50095015  0.95364169  0.83369717  1
  Cl  Cl11  1  0.99905163  0.04635879  0.33369709  1
