# generated using pymatgen
data_TbTc2
_symmetry_space_group_name_H-M   'P 1'
_cell_length_a   5.37318691
_cell_length_b   5.37264922
_cell_length_c   8.86284044
_cell_angle_alpha   90.00000000
_cell_angle_beta   90.00000000
_cell_angle_gamma   120.00331065
_symmetry_Int_Tables_number   1
_chemical_formula_structural   TbTc2
_chemical_formula_sum   'Tb4 Tc8'
_cell_volume   221.56925983
_cell_formula_units_Z   4
loop_
 _symmetry_equiv_pos_site_id
 _symmetry_equiv_pos_as_xyz
  1  'x, y, z'
loop_
 _atom_site_type_symbol
 _atom_site_label
 _atom_site_symmetry_multiplicity
 _atom_site_fract_x
 _atom_site_fract_y
 _atom_site_fract_z
 _atom_site_occupancy
  Tb  Tb0  1  0.66667416  0.33334814  0.06291077  1
  Tb  Tb1  1  0.33332594  0.66665206  0.56291075  1
  Tb  Tb2  1  0.33332594  0.66665206  0.93708918  1
  Tb  Tb3  1  0.66667416  0.33334814  0.43708920  1
  Tc  Tc4  1  0.00000000  0.00000000  0.00000000  1
  Tc  Tc5  1  0.00000000  0.00000000  0.49999998  1
  Tc  Tc6  1  0.65770205  0.82885821  0.24999999  1
  Tc  Tc7  1  0.17115619  0.82885871  0.24999999  1
  Tc  Tc8  1  0.17116256  0.34232521  0.24999999  1
  Tc  Tc9  1  0.34229805  0.17114198  0.74999996  1
  Tc  Tc10  1  0.82884391  0.17114148  0.74999996  1
  Tc  Tc11  1  0.82883754  0.65767498  0.74999996  1
