# generated using pymatgen
data_Ho5Pt3
_symmetry_space_group_name_H-M   'P 1'
_cell_length_a   8.39492246
_cell_length_b   8.39492246
_cell_length_c   6.12684159
_cell_angle_alpha   90.00000000
_cell_angle_beta   90.00000000
_cell_angle_gamma   120.00035114
_symmetry_Int_Tables_number   1
_chemical_formula_structural   Ho5Pt3
_chemical_formula_sum   'Ho10 Pt6'
_cell_volume   373.93759003
_cell_formula_units_Z   2
loop_
 _symmetry_equiv_pos_site_id
 _symmetry_equiv_pos_as_xyz
  1  'x, y, z'
loop_
 _atom_site_type_symbol
 _atom_site_label
 _atom_site_symmetry_multiplicity
 _atom_site_fract_x
 _atom_site_fract_y
 _atom_site_fract_z
 _atom_site_occupancy
  Ho  Ho0  1  0.33333092  0.66666933  0.00000000  1
  Ho  Ho1  1  0.66666933  0.33333092  0.49999987  1
  Ho  Ho2  1  0.66666933  0.33333092  0.00000000  1
  Ho  Ho3  1  0.33333092  0.66666933  0.49999987  1
  Ho  Ho4  1  0.24567701  0.00000201  0.24999994  1
  Ho  Ho5  1  0.00000201  0.24567701  0.24999994  1
  Ho  Ho6  1  0.75431712  0.75431712  0.24999994  1
  Ho  Ho7  1  0.75432324  0.99999824  0.74999981  1
  Ho  Ho8  1  0.99999824  0.75432324  0.74999981  1
  Ho  Ho9  1  0.24568313  0.24568313  0.74999981  1
  Pt  Pt10  1  0.60632948  0.99999947  0.24999994  1
  Pt  Pt11  1  0.99999947  0.60632948  0.24999994  1
  Pt  Pt12  1  0.39367322  0.39367322  0.24999994  1
  Pt  Pt13  1  0.39367077  0.00000078  0.74999981  1
  Pt  Pt14  1  0.00000078  0.39367077  0.74999981  1
  Pt  Pt15  1  0.60632703  0.60632703  0.74999981  1
