# generated using pymatgen
data_BaCdW2
_symmetry_space_group_name_H-M   'P 1'
_cell_length_a   5.95879114
_cell_length_b   5.95879114
_cell_length_c   5.95879114
_cell_angle_alpha   138.54416320
_cell_angle_beta   138.54416320
_cell_angle_gamma   60.07060129
_symmetry_Int_Tables_number   1
_chemical_formula_structural   BaCdW2
_chemical_formula_sum   'Ba1 Cd1 W2'
_cell_volume   91.77973034
_cell_formula_units_Z   1
loop_
 _symmetry_equiv_pos_site_id
 _symmetry_equiv_pos_as_xyz
  1  'x, y, z'
loop_
 _atom_site_type_symbol
 _atom_site_label
 _atom_site_symmetry_multiplicity
 _atom_site_fract_x
 _atom_site_fract_y
 _atom_site_fract_z
 _atom_site_occupancy
  Ba  Ba0  1  0.25000010  0.75000043  0.50000033  1
  Cd  Cd1  1  0.75000043  0.25000010  0.50000033  1
  W  W2  1  0.00000000  0.00000000  0.00000000  1
  W  W3  1  0.50000021  0.50000021  0.00000000  1
