# generated using pymatgen
data_ZnCu2SiS4
_symmetry_space_group_name_H-M   'P 1'
_cell_length_a   6.16640408
_cell_length_b   6.45519764
_cell_length_c   7.35715857
_cell_angle_alpha   90.00000000
_cell_angle_beta   90.00000000
_cell_angle_gamma   90.00000000
_symmetry_Int_Tables_number   1
_chemical_formula_structural   ZnCu2SiS4
_chemical_formula_sum   'Zn2 Cu4 Si2 S8'
_cell_volume   292.85432364
_cell_formula_units_Z   2
loop_
 _symmetry_equiv_pos_site_id
 _symmetry_equiv_pos_as_xyz
  1  'x, y, z'
loop_
 _atom_site_type_symbol
 _atom_site_label
 _atom_site_symmetry_multiplicity
 _atom_site_fract_x
 _atom_site_fract_y
 _atom_site_fract_z
 _atom_site_occupancy
  Zn  Zn0  1  0.49828212  0.84862167  0.00000000  1
  Zn  Zn1  1  0.99828179  0.15137870  0.50000010  1
  Cu  Cu2  1  0.98781136  0.67281954  0.24765908  1
  Cu  Cu3  1  0.48781169  0.32718083  0.25234101  1
  Cu  Cu4  1  0.48781169  0.32718083  0.74765918  1
  Cu  Cu5  1  0.98781136  0.67281954  0.75234111  1
  Si  Si6  1  0.99930039  0.17044308  0.00000000  1
  Si  Si7  1  0.49930072  0.82955729  0.50000010  1
  S  S8  1  0.64884787  0.18080012  0.00000000  1
  S  S9  1  0.14884820  0.81920024  0.50000010  1
  S  S10  1  0.11535801  0.85582184  0.00000000  1
  S  S11  1  0.61535768  0.14417853  0.50000010  1
  S  S12  1  0.61729264  0.66504039  0.26290003  1
  S  S13  1  0.11729297  0.33495998  0.23710007  1
  S  S14  1  0.11729297  0.33495998  0.76290012  1
  S  S15  1  0.61729264  0.66504039  0.73710017  1
