# generated using pymatgen
data_U2SnPt2
_symmetry_space_group_name_H-M   'P 1'
_cell_length_a   7.77502873
_cell_length_b   7.77502873
_cell_length_c   7.31133413
_cell_angle_alpha   90.00000000
_cell_angle_beta   90.00000000
_cell_angle_gamma   90.00000000
_symmetry_Int_Tables_number   1
_chemical_formula_structural   U2SnPt2
_chemical_formula_sum   'U8 Sn4 Pt8'
_cell_volume   441.97798450
_cell_formula_units_Z   4
loop_
 _symmetry_equiv_pos_site_id
 _symmetry_equiv_pos_as_xyz
  1  'x, y, z'
loop_
 _atom_site_type_symbol
 _atom_site_label
 _atom_site_symmetry_multiplicity
 _atom_site_fract_x
 _atom_site_fract_y
 _atom_site_fract_z
 _atom_site_occupancy
  U  U0  1  0.15187394  0.15187394  0.49999972  1
  U  U1  1  0.65187402  0.34812615  0.00000000  1
  U  U2  1  0.34812615  0.65187402  0.00000000  1
  U  U3  1  0.68653295  0.31346721  0.49999972  1
  U  U4  1  0.31346721  0.68653295  0.49999972  1
  U  U5  1  0.81346730  0.81346730  0.00000000  1
  U  U6  1  0.18653287  0.18653287  0.00000000  1
  U  U7  1  0.84812623  0.84812623  0.49999972  1
  Sn  Sn8  1  0.50000008  0.00000000  0.74999958  1
  Sn  Sn9  1  0.50000008  0.00000000  0.24999986  1
  Sn  Sn10  1  0.00000000  0.50000008  0.74999958  1
  Sn  Sn11  1  0.00000000  0.50000008  0.24999986  1
  Pt  Pt12  1  0.63204388  0.63204388  0.71693838  1
  Pt  Pt13  1  0.36795629  0.36795629  0.71693838  1
  Pt  Pt14  1  0.86795637  0.13204379  0.21693867  1
  Pt  Pt15  1  0.13204379  0.86795637  0.21693867  1
  Pt  Pt16  1  0.86795637  0.13204379  0.78306077  1
  Pt  Pt17  1  0.13204379  0.86795637  0.78306077  1
  Pt  Pt18  1  0.63204388  0.63204388  0.28306105  1
  Pt  Pt19  1  0.36795629  0.36795629  0.28306105  1
