# generated using pymatgen
data_CuS
_symmetry_space_group_name_H-M   'P 1'
_cell_length_a   3.81611980
_cell_length_b   3.81611980
_cell_length_c   16.36016149
_cell_angle_alpha   90.00000000
_cell_angle_beta   90.00000000
_cell_angle_gamma   120.73428929
_symmetry_Int_Tables_number   1
_chemical_formula_structural   CuS
_chemical_formula_sum   'Cu6 S6'
_cell_volume   204.78634817
_cell_formula_units_Z   6
loop_
 _symmetry_equiv_pos_site_id
 _symmetry_equiv_pos_as_xyz
  1  'x, y, z'
loop_
 _atom_site_type_symbol
 _atom_site_label
 _atom_site_symmetry_multiplicity
 _atom_site_fract_x
 _atom_site_fract_y
 _atom_site_fract_z
 _atom_site_occupancy
  Cu  Cu0  1  0.60592022  0.39407780  0.24999998  1
  Cu  Cu1  1  0.39407780  0.60592022  0.74999993  1
  Cu  Cu2  1  0.65930023  0.34069779  0.89209709  1
  Cu  Cu3  1  0.34069779  0.65930023  0.39209714  1
  Cu  Cu4  1  0.65930023  0.34069779  0.60790277  1
  Cu  Cu5  1  0.34069779  0.65930023  0.10790282  1
  S  S6  1  0.72377837  0.27621965  0.74999993  1
  S  S7  1  0.27621965  0.72377837  0.24999998  1
  S  S8  1  0.99325891  0.00673911  0.93519049  1
  S  S9  1  0.00673911  0.99325891  0.43519054  1
  S  S10  1  0.99325891  0.00673911  0.56480937  1
  S  S11  1  0.00673911  0.99325891  0.06480941  1
