# generated using pymatgen
data_TbGaNi
_symmetry_space_group_name_H-M   'P 1'
_cell_length_a   4.26977680
_cell_length_b   6.82932019
_cell_length_c   7.35902183
_cell_angle_alpha   90.00000000
_cell_angle_beta   90.00000000
_cell_angle_gamma   90.00000000
_symmetry_Int_Tables_number   1
_chemical_formula_structural   TbGaNi
_chemical_formula_sum   'Tb4 Ga4 Ni4'
_cell_volume   214.58666957
_cell_formula_units_Z   4
loop_
 _symmetry_equiv_pos_site_id
 _symmetry_equiv_pos_as_xyz
  1  'x, y, z'
loop_
 _atom_site_type_symbol
 _atom_site_label
 _atom_site_symmetry_multiplicity
 _atom_site_fract_x
 _atom_site_fract_y
 _atom_site_fract_z
 _atom_site_occupancy
  Tb  Tb0  1  0.25000019  0.02098512  0.80554749  1
  Tb  Tb1  1  0.75000056  0.47901487  0.30554762  1
  Tb  Tb2  1  0.75000056  0.97901485  0.19445226  1
  Tb  Tb3  1  0.25000019  0.52098510  0.69445213  1
  Ga  Ga4  1  0.25000019  0.17266827  0.42336923  1
  Ga  Ga5  1  0.75000056  0.32733171  0.92336911  1
  Ga  Ga6  1  0.75000056  0.82733170  0.57663052  1
  Ga  Ga7  1  0.25000019  0.67266826  0.07663064  1
  Ni  Ni8  1  0.25000019  0.78627238  0.40296811  1
  Ni  Ni9  1  0.75000056  0.71372758  0.90296799  1
  Ni  Ni10  1  0.75000056  0.21372760  0.59703164  1
  Ni  Ni11  1  0.25000019  0.28627239  0.09703176  1
