# generated using pymatgen
data_UCdO4
_symmetry_space_group_name_H-M   'P 1'
_cell_length_a   4.97407713
_cell_length_b   4.97407713
_cell_length_c   3.53719362
_cell_angle_alpha   90.00000000
_cell_angle_beta   90.00000000
_cell_angle_gamma   91.38639185
_symmetry_Int_Tables_number   1
_chemical_formula_structural   UCdO4
_chemical_formula_sum   'U1 Cd1 O4'
_cell_volume   87.48965644
_cell_formula_units_Z   1
loop_
 _symmetry_equiv_pos_site_id
 _symmetry_equiv_pos_as_xyz
  1  'x, y, z'
loop_
 _atom_site_type_symbol
 _atom_site_label
 _atom_site_symmetry_multiplicity
 _atom_site_fract_x
 _atom_site_fract_y
 _atom_site_fract_z
 _atom_site_occupancy
  U  U0  1  0.00000000  0.00000000  0.00000000  1
  Cd  Cd1  1  0.49999939  0.49999939  0.49999949  1
  O  O2  1  0.28395639  0.28395639  0.00000000  1
  O  O3  1  0.71604239  0.71604239  0.00000000  1
  O  O4  1  0.17871154  0.82128724  0.49999949  1
  O  O5  1  0.82128724  0.17871154  0.49999949  1
