# generated using pymatgen
data_BePtCl2
_symmetry_space_group_name_H-M   'P 1'
_cell_length_a   6.46278261
_cell_length_b   6.46278261
_cell_length_c   6.46278261
_cell_angle_alpha   148.78609551
_cell_angle_beta   148.78609551
_cell_angle_gamma   44.72625803
_symmetry_Int_Tables_number   1
_chemical_formula_structural   BePtCl2
_chemical_formula_sum   'Be1 Pt1 Cl2'
_cell_volume   72.27453048
_cell_formula_units_Z   1
loop_
 _symmetry_equiv_pos_site_id
 _symmetry_equiv_pos_as_xyz
  1  'x, y, z'
loop_
 _atom_site_type_symbol
 _atom_site_label
 _atom_site_symmetry_multiplicity
 _atom_site_fract_x
 _atom_site_fract_y
 _atom_site_fract_z
 _atom_site_occupancy
  Be  Be0  1  0.75000110  0.24999985  0.50000126  1
  Pt  Pt1  1  0.49999970  0.49999970  0.00000000  1
  Cl  Cl2  1  0.00000000  0.00000000  0.00000000  1
  Cl  Cl3  1  0.24999985  0.75000110  0.50000126  1
