# generated using pymatgen
data_Be2CoCl
_symmetry_space_group_name_H-M   'P 1'
_cell_length_a   4.54910285
_cell_length_b   4.54910285
_cell_length_c   4.54910285
_cell_angle_alpha   136.77223752
_cell_angle_beta   136.77223752
_cell_angle_gamma   62.78867663
_symmetry_Int_Tables_number   1
_chemical_formula_structural   Be2CoCl
_chemical_formula_sum   'Be2 Co1 Cl1'
_cell_volume   43.61277349
_cell_formula_units_Z   1
loop_
 _symmetry_equiv_pos_site_id
 _symmetry_equiv_pos_as_xyz
  1  'x, y, z'
loop_
 _atom_site_type_symbol
 _atom_site_label
 _atom_site_symmetry_multiplicity
 _atom_site_fract_x
 _atom_site_fract_y
 _atom_site_fract_z
 _atom_site_occupancy
  Be  Be0  1  0.00000000  0.00000000  0.00000000  1
  Be  Be1  1  0.49999941  0.49999941  0.00000000  1
  Co  Co2  1  0.74999937  0.24999971  0.49999966  1
  Cl  Cl3  1  0.24999971  0.74999937  0.49999966  1
