# generated using pymatgen
data_ErB2Rh3
_symmetry_space_group_name_H-M   'P 1'
_cell_length_a   5.38390722
_cell_length_b   5.38390722
_cell_length_c   3.14708282
_cell_angle_alpha   90.00035013
_cell_angle_beta   90.00035013
_cell_angle_gamma   119.99954374
_symmetry_Int_Tables_number   1
_chemical_formula_structural   ErB2Rh3
_chemical_formula_sum   'Er1 B2 Rh3'
_cell_volume   79.00160882
_cell_formula_units_Z   1
loop_
 _symmetry_equiv_pos_site_id
 _symmetry_equiv_pos_as_xyz
  1  'x, y, z'
loop_
 _atom_site_type_symbol
 _atom_site_label
 _atom_site_symmetry_multiplicity
 _atom_site_fract_x
 _atom_site_fract_y
 _atom_site_fract_z
 _atom_site_occupancy
  Er  Er0  1  0.49999997  0.49999997  0.50000146  1
  B  B1  1  0.16667070  0.83332925  0.50000146  1
  B  B2  1  0.83332925  0.16667070  0.50000146  1
  Rh  Rh3  1  0.00000000  0.00000000  0.00000000  1
  Rh  Rh4  1  0.00000013  0.50000016  0.00000035  1
  Rh  Rh5  1  0.50000016  0.00000013  0.00000035  1
