# generated using pymatgen
data_Sr2Cu3(BrO2)2
_symmetry_space_group_name_H-M   'P 1'
_cell_length_a   7.73090754
_cell_length_b   7.73090754
_cell_length_c   7.73090754
_cell_angle_alpha   138.25947512
_cell_angle_beta   138.25947512
_cell_angle_gamma   60.50583199
_symmetry_Int_Tables_number   1
_chemical_formula_structural   Sr2Cu3(BrO2)2
_chemical_formula_sum   'Sr2 Cu3 Br2 O4'
_cell_volume   202.62211734
_cell_formula_units_Z   1
loop_
 _symmetry_equiv_pos_site_id
 _symmetry_equiv_pos_as_xyz
  1  'x, y, z'
loop_
 _atom_site_type_symbol
 _atom_site_label
 _atom_site_symmetry_multiplicity
 _atom_site_fract_x
 _atom_site_fract_y
 _atom_site_fract_z
 _atom_site_occupancy
  Sr  Sr0  1  0.36809115  0.36809115  0.00000000  1
  Sr  Sr1  1  0.63190822  0.63190822  0.00000000  1
  Cu  Cu2  1  0.50000007  0.00000000  0.50000007  1
  Cu  Cu3  1  0.00000000  0.50000007  0.50000007  1
  Cu  Cu4  1  0.00000000  0.00000000  0.00000000  1
  Br  Br5  1  0.74999991  0.24999984  0.50000007  1
  Br  Br6  1  0.24999984  0.74999991  0.50000007  1
  O  O7  1  0.74979261  0.74979261  0.49958584  1
  O  O8  1  0.25020714  0.25020714  0.50041429  1
  O  O9  1  0.74979261  0.25020676  0.00000000  1
  O  O10  1  0.25020676  0.74979261  0.00000000  1
