# generated using pymatgen
data_BePW2
_symmetry_space_group_name_H-M   'P 1'
_cell_length_a   3.13532128
_cell_length_b   3.13532128
_cell_length_c   5.40769942
_cell_angle_alpha   90.00000000
_cell_angle_beta   90.00000000
_cell_angle_gamma   90.00000000
_symmetry_Int_Tables_number   1
_chemical_formula_structural   BePW2
_chemical_formula_sum   'Be1 P1 W2'
_cell_volume   53.15898070
_cell_formula_units_Z   1
loop_
 _symmetry_equiv_pos_site_id
 _symmetry_equiv_pos_as_xyz
  1  'x, y, z'
loop_
 _atom_site_type_symbol
 _atom_site_label
 _atom_site_symmetry_multiplicity
 _atom_site_fract_x
 _atom_site_fract_y
 _atom_site_fract_z
 _atom_site_occupancy
  Be  Be0  1  0.00000000  0.00000000  0.49597781  1
  P  P1  1  0.49999980  0.49999980  0.73984591  1
  W  W2  1  0.00000000  0.00000000  0.98395296  1
  W  W3  1  0.49999980  0.49999980  0.28022458  1
