# generated using pymatgen
data_UAlAu2
_symmetry_space_group_name_H-M   'P 1'
_cell_length_a   5.55462549
_cell_length_b   6.94252276
_cell_length_c   8.92499899
_cell_angle_alpha   90.00000000
_cell_angle_beta   90.00000000
_cell_angle_gamma   90.00000000
_symmetry_Int_Tables_number   1
_chemical_formula_structural   UAlAu2
_chemical_formula_sum   'U4 Al4 Au8'
_cell_volume   344.17575278
_cell_formula_units_Z   4
loop_
 _symmetry_equiv_pos_site_id
 _symmetry_equiv_pos_as_xyz
  1  'x, y, z'
loop_
 _atom_site_type_symbol
 _atom_site_label
 _atom_site_symmetry_multiplicity
 _atom_site_fract_x
 _atom_site_fract_y
 _atom_site_fract_z
 _atom_site_occupancy
  U  U0  1  0.66459543  0.74999970  0.07106565  1
  U  U1  1  0.16459502  0.24999990  0.42893441  1
  U  U2  1  0.33540539  0.24999990  0.92893447  1
  U  U3  1  0.83540579  0.74999970  0.57106570  1
  Al  Al4  1  0.33533883  0.74999970  0.39167690  1
  Al  Al5  1  0.83533923  0.24999990  0.10832315  1
  Al  Al6  1  0.66466198  0.24999990  0.60832321  1
  Al  Al7  1  0.16466158  0.74999970  0.89167696  1
  Au  Au8  1  0.15408306  0.96186357  0.16688795  1
  Au  Au9  1  0.65408347  0.03813604  0.33311211  1
  Au  Au10  1  0.84591775  0.46186376  0.83311217  1
  Au  Au11  1  0.34591734  0.53813584  0.66688800  1
  Au  Au12  1  0.84591775  0.03813604  0.83311217  1
  Au  Au13  1  0.34591734  0.96186357  0.66688800  1
  Au  Au14  1  0.15408306  0.53813584  0.16688795  1
  Au  Au15  1  0.65408347  0.46186376  0.33311211  1
