# generated using pymatgen
data_KBeTc
_symmetry_space_group_name_H-M   'P 1'
_cell_length_a   2.77011463
_cell_length_b   2.77011463
_cell_length_c   7.79041688
_cell_angle_alpha   90.00000000
_cell_angle_beta   90.00000000
_cell_angle_gamma   119.99999440
_symmetry_Int_Tables_number   1
_chemical_formula_structural   KBeTc
_chemical_formula_sum   'K1 Be1 Tc1'
_cell_volume   51.77103368
_cell_formula_units_Z   1
loop_
 _symmetry_equiv_pos_site_id
 _symmetry_equiv_pos_as_xyz
  1  'x, y, z'
loop_
 _atom_site_type_symbol
 _atom_site_label
 _atom_site_symmetry_multiplicity
 _atom_site_fract_x
 _atom_site_fract_y
 _atom_site_fract_z
 _atom_site_occupancy
  K  K0  1  0.66666796  0.33333390  0.33450360  1
  Be  Be1  1  -0.00000000  0.00000000  0.95335395  1
  Tc  Tc2  1  0.33333390  0.66666796  0.71214325  1
