# generated using pymatgen
data_Tb2CuGe6
_symmetry_space_group_name_H-M   'P 1'
_cell_length_a   10.90912990
_cell_length_b   10.90912990
_cell_length_c   4.11325304
_cell_angle_alpha   90.00000000
_cell_angle_beta   90.00000000
_cell_angle_gamma   158.61623269
_symmetry_Int_Tables_number   1
_chemical_formula_structural   Tb2CuGe6
_chemical_formula_sum   'Tb2 Cu1 Ge6'
_cell_volume   178.48338275
_cell_formula_units_Z   1
loop_
 _symmetry_equiv_pos_site_id
 _symmetry_equiv_pos_as_xyz
  1  'x, y, z'
loop_
 _atom_site_type_symbol
 _atom_site_label
 _atom_site_symmetry_multiplicity
 _atom_site_fract_x
 _atom_site_fract_y
 _atom_site_fract_z
 _atom_site_occupancy
  Tb  Tb0  1  0.00457126  0.99542740  0.00000000  1
  Tb  Tb1  1  0.66855372  0.33144494  0.00000000  1
  Cu  Cu2  1  0.22459360  0.77540506  0.49999963  1
  Ge  Ge3  1  0.28469378  0.71530488  0.00000000  1
  Ge  Ge4  1  0.40112378  0.59887488  0.00000000  1
  Ge  Ge5  1  0.54373382  0.45626483  0.49999963  1
  Ge  Ge6  1  0.11618185  0.88381680  0.49999963  1
  Ge  Ge7  1  0.90216277  0.09783589  0.49999963  1
  Ge  Ge8  1  0.78537925  0.21461941  0.49999963  1
