# generated using pymatgen
data_KSrBe2
_symmetry_space_group_name_H-M   'P 1'
_cell_length_a   5.06356163
_cell_length_b   5.06356163
_cell_length_c   5.06356163
_cell_angle_alpha   120.01559010
_cell_angle_beta   120.01559010
_cell_angle_gamma   89.97299927
_symmetry_Int_Tables_number   1
_chemical_formula_structural   KSrBe2
_chemical_formula_sum   'K1 Sr1 Be2'
_cell_volume   91.78060129
_cell_formula_units_Z   1
loop_
 _symmetry_equiv_pos_site_id
 _symmetry_equiv_pos_as_xyz
  1  'x, y, z'
loop_
 _atom_site_type_symbol
 _atom_site_label
 _atom_site_symmetry_multiplicity
 _atom_site_fract_x
 _atom_site_fract_y
 _atom_site_fract_z
 _atom_site_occupancy
  K  K0  1  0.49999968  0.49999968  0.00000000  1
  Sr  Sr1  1  0.74999901  0.24999984  0.49999917  1
  Be  Be2  1  0.00000000  0.00000000  0.00000000  1
  Be  Be3  1  0.24999984  0.74999901  0.49999917  1
