# generated using pymatgen
data_MnWO4
_symmetry_space_group_name_H-M   'P 1'
_cell_length_a   5.73826796
_cell_length_b   4.71485304
_cell_length_c   5.02113930
_cell_angle_alpha   88.77760158
_cell_angle_beta   90.00000000
_cell_angle_gamma   90.00000000
_symmetry_Int_Tables_number   1
_chemical_formula_structural   MnWO4
_chemical_formula_sum   'Mn2 W2 O8'
_cell_volume   135.81646026
_cell_formula_units_Z   2
loop_
 _symmetry_equiv_pos_site_id
 _symmetry_equiv_pos_as_xyz
  1  'x, y, z'
loop_
 _atom_site_type_symbol
 _atom_site_label
 _atom_site_symmetry_multiplicity
 _atom_site_fract_x
 _atom_site_fract_y
 _atom_site_fract_z
 _atom_site_occupancy
  Mn  Mn0  1  0.67164956  0.49999997  0.24999978  1
  Mn  Mn1  1  0.32835079  0.49999997  0.75000004  1
  W  W2  1  0.17602277  0.00000000  0.25000013  1
  W  W3  1  0.82397758  0.00000001  0.75000038  1
  O  O4  1  0.10798047  0.78171793  0.93467485  1
  O  O5  1  0.10798047  0.21828201  0.56532522  1
  O  O6  1  0.89201988  0.21828201  0.06532497  1
  O  O7  1  0.89201988  0.78171793  0.43467460  1
  O  O8  1  0.37701052  0.73997956  0.40445804  1
  O  O9  1  0.37701052  0.26002038  0.09554153  1
  O  O10  1  0.62298983  0.26002038  0.59554178  1
  O  O11  1  0.62298983  0.73997956  0.90445829  1
