# generated using pymatgen
data_MnBe2Cl
_symmetry_space_group_name_H-M   'P 1'
_cell_length_a   2.86771373
_cell_length_b   2.86771373
_cell_length_c   7.25137952
_cell_angle_alpha   90.00000000
_cell_angle_beta   90.00000000
_cell_angle_gamma   90.00000000
_symmetry_Int_Tables_number   1
_chemical_formula_structural   MnBe2Cl
_chemical_formula_sum   'Mn1 Be2 Cl1'
_cell_volume   59.63376478
_cell_formula_units_Z   1
loop_
 _symmetry_equiv_pos_site_id
 _symmetry_equiv_pos_as_xyz
  1  'x, y, z'
loop_
 _atom_site_type_symbol
 _atom_site_label
 _atom_site_symmetry_multiplicity
 _atom_site_fract_x
 _atom_site_fract_y
 _atom_site_fract_z
 _atom_site_occupancy
  Mn  Mn0  1  0.49999935  0.49999935  0.78436321  1
  Be  Be1  1  0.00000000  0.00000000  0.01016174  1
  Be  Be2  1  0.49999935  0.49999935  0.13392763  1
  Cl  Cl3  1  0.00000000  0.00000000  0.57154752  1
