# generated using pymatgen
data_KAs2F7
_symmetry_space_group_name_H-M   'P 1'
_cell_length_a   8.54883213
_cell_length_b   7.28655362
_cell_length_c   10.80198193
_cell_angle_alpha   90.00000000
_cell_angle_beta   109.91362565
_cell_angle_gamma   90.00000000
_symmetry_Int_Tables_number   1
_chemical_formula_structural   KAs2F7
_chemical_formula_sum   'K4 As8 F28'
_cell_volume   632.63898696
_cell_formula_units_Z   4
loop_
 _symmetry_equiv_pos_site_id
 _symmetry_equiv_pos_as_xyz
  1  'x, y, z'
loop_
 _atom_site_type_symbol
 _atom_site_label
 _atom_site_symmetry_multiplicity
 _atom_site_fract_x
 _atom_site_fract_y
 _atom_site_fract_z
 _atom_site_occupancy
  K  K0  1  0.22834876  0.84388876  0.07826325  1
  K  K1  1  0.27165143  0.34388900  0.92173654  1
  K  K2  1  0.77165141  0.15611075  0.92173673  1
  K  K3  1  0.72834875  0.65611050  0.07826345  1
  As  As4  1  0.66577410  0.18532538  0.23279002  1
  As  As5  1  0.83422605  0.68532513  0.76721016  1
  As  As6  1  0.33422607  0.81467412  0.76720997  1
  As  As7  1  0.16577412  0.31467437  0.23278983  1
  As  As8  1  0.87269478  0.16992729  0.59514875  1
  As  As9  1  0.37269479  0.33007246  0.59514856  1
  As  As10  1  0.12730540  0.83007221  0.40485124  1
  As  As11  1  0.62730538  0.66992704  0.40485143  1
  F  F12  1  0.79015004  0.50406546  0.86466283  1
  F  F13  1  0.59681057  0.32531939  0.07027174  1
  F  F14  1  0.20985013  0.49593404  0.13533716  1
  F  F15  1  0.29015006  0.99593379  0.86466264  1
  F  F16  1  0.70985011  0.00406571  0.13533735  1
  F  F17  1  0.29584315  0.00221517  0.62075723  1
  F  F18  1  0.55146827  0.87425434  0.81290215  1
  F  F19  1  0.05146828  0.62574492  0.81290196  1
  F  F20  1  0.44853191  0.12574516  0.18709784  1
  F  F21  1  0.20415704  0.50221492  0.37924256  1
  F  F22  1  0.90318958  0.82531914  0.92972844  1
  F  F23  1  0.94853189  0.37425459  0.18709803  1
  F  F24  1  0.40318960  0.67468011  0.92972825  1
  F  F25  1  0.81469998  0.61663013  0.37294003  1
  F  F26  1  0.52224515  0.70688029  0.23109664  1
  F  F27  1  0.97775500  0.20688054  0.76890354  1
  F  F28  1  0.47775502  0.29311921  0.76890334  1
  F  F29  1  0.02224517  0.79311897  0.23109645  1
  F  F30  1  0.79584313  0.49778458  0.62075742  1
  F  F31  1  0.68530018  0.11663038  0.62706015  1
  F  F32  1  0.18530019  0.38336938  0.62705996  1
  F  F33  1  0.31470000  0.88336913  0.37293984  1
  F  F34  1  0.55509652  0.43236668  0.38101040  1
  F  F35  1  0.94490363  0.93236644  0.61898978  1
  F  F36  1  0.44490365  0.56763282  0.61898959  1
  F  F37  1  0.05509654  0.06763307  0.38101021  1
  F  F38  1  0.09681059  0.17468036  0.07027154  1
  F  F39  1  0.70415703  -0.00221517  0.37924275  1
