# generated using pymatgen
data_TaBeP2
_symmetry_space_group_name_H-M   'P 1'
_cell_length_a   5.14656766
_cell_length_b   5.14656766
_cell_length_c   5.14656766
_cell_angle_alpha   139.90357830
_cell_angle_beta   139.90357830
_cell_angle_gamma   57.99973045
_symmetry_Int_Tables_number   1
_chemical_formula_structural   TaBeP2
_chemical_formula_sum   'Ta1 Be1 P2'
_cell_volume   56.04561691
_cell_formula_units_Z   1
loop_
 _symmetry_equiv_pos_site_id
 _symmetry_equiv_pos_as_xyz
  1  'x, y, z'
loop_
 _atom_site_type_symbol
 _atom_site_label
 _atom_site_symmetry_multiplicity
 _atom_site_fract_x
 _atom_site_fract_y
 _atom_site_fract_z
 _atom_site_occupancy
  Ta  Ta0  1  0.50000051  0.50000051  0.00000000  1
  Be  Be1  1  0.75000067  0.25000026  0.50000041  1
  P  P2  1  0.00000000  0.00000000  0.00000000  1
  P  P3  1  0.25000026  0.75000067  0.50000041  1
