# generated using pymatgen
data_BeCu2Os
_symmetry_space_group_name_H-M   'P 1'
_cell_length_a   4.74096261
_cell_length_b   4.74096261
_cell_length_c   4.74096261
_cell_angle_alpha   138.05833761
_cell_angle_beta   138.05833761
_cell_angle_gamma   60.81366358
_symmetry_Int_Tables_number   1
_chemical_formula_structural   BeCu2Os
_chemical_formula_sum   'Be1 Cu2 Os1'
_cell_volume   47.08696321
_cell_formula_units_Z   1
loop_
 _symmetry_equiv_pos_site_id
 _symmetry_equiv_pos_as_xyz
  1  'x, y, z'
loop_
 _atom_site_type_symbol
 _atom_site_label
 _atom_site_symmetry_multiplicity
 _atom_site_fract_x
 _atom_site_fract_y
 _atom_site_fract_z
 _atom_site_occupancy
  Be  Be0  1  0.75000137  0.25000006  0.50000131  1
  Cu  Cu1  1  0.00000000  0.00000000  0.00000000  1
  Cu  Cu2  1  0.50000013  0.50000013  0.00000000  1
  Os  Os3  1  0.25000006  0.75000137  0.50000131  1
