# generated using pymatgen
data_RbAgO
_symmetry_space_group_name_H-M   'P 1'
_cell_length_a   7.67435702
_cell_length_b   7.67435702
_cell_length_c   7.67435702
_cell_angle_alpha   98.17645455
_cell_angle_beta   98.17645455
_cell_angle_gamma   135.68875482
_symmetry_Int_Tables_number   1
_chemical_formula_structural   RbAgO
_chemical_formula_sum   'Rb4 Ag4 O4'
_cell_volume   292.42498031
_cell_formula_units_Z   4
loop_
 _symmetry_equiv_pos_site_id
 _symmetry_equiv_pos_as_xyz
  1  'x, y, z'
loop_
 _atom_site_type_symbol
 _atom_site_label
 _atom_site_symmetry_multiplicity
 _atom_site_fract_x
 _atom_site_fract_y
 _atom_site_fract_z
 _atom_site_occupancy
  Rb  Rb0  1  0.74996945  0.56295631  0.81298754  1
  Rb  Rb1  1  0.74996897  0.93698212  0.18701315  1
  Rb  Rb2  1  0.43704390  0.25003075  0.18701315  1
  Rb  Rb3  1  0.06301809  0.25003123  0.81298754  1
  Ag  Ag4  1  0.39643246  0.89643281  0.79286541  1
  Ag  Ag5  1  0.10356740  0.60356774  0.20713528  1
  Ag  Ag6  1  0.10356740  0.89643281  0.50000034  1
  Ag  Ag7  1  0.39643246  0.60356774  0.50000034  1
  O  O8  1  0.24993162  0.45923298  0.20930136  1
  O  O9  1  0.24993210  0.04063074  0.79069933  1
  O  O10  1  0.54076722  0.75006859  0.79069933  1
  O  O11  1  0.95936946  0.75006810  0.20930136  1
