# generated using pymatgen
data_TiBe2Cd
_symmetry_space_group_name_H-M   'P 1'
_cell_length_a   4.21926879
_cell_length_b   4.21926879
_cell_length_c   4.21926879
_cell_angle_alpha   119.99893823
_cell_angle_beta   119.99893823
_cell_angle_gamma   90.00183904
_symmetry_Int_Tables_number   1
_chemical_formula_structural   TiBe2Cd
_chemical_formula_sum   'Ti1 Be2 Cd1'
_cell_volume   53.11333249
_cell_formula_units_Z   1
loop_
 _symmetry_equiv_pos_site_id
 _symmetry_equiv_pos_as_xyz
  1  'x, y, z'
loop_
 _atom_site_type_symbol
 _atom_site_label
 _atom_site_symmetry_multiplicity
 _atom_site_fract_x
 _atom_site_fract_y
 _atom_site_fract_z
 _atom_site_occupancy
  Ti  Ti0  1  0.75000078  0.25000036  0.50000041  1
  Be  Be1  1  0.00000000  0.00000000  0.00000000  1
  Be  Be2  1  0.50000072  0.50000072  0.00000000  1
  Cd  Cd3  1  0.25000036  0.75000078  0.50000041  1
