# generated using pymatgen
data_LaTa2Be
_symmetry_space_group_name_H-M   'P 1'
_cell_length_a   4.80644141
_cell_length_b   4.80644141
_cell_length_c   4.80644141
_cell_angle_alpha   119.97878890
_cell_angle_beta   119.97878890
_cell_angle_gamma   90.03674264
_symmetry_Int_Tables_number   1
_chemical_formula_structural   LaTa2Be
_chemical_formula_sum   'La1 Ta2 Be1'
_cell_volume   78.54075629
_cell_formula_units_Z   1
loop_
 _symmetry_equiv_pos_site_id
 _symmetry_equiv_pos_as_xyz
  1  'x, y, z'
loop_
 _atom_site_type_symbol
 _atom_site_label
 _atom_site_symmetry_multiplicity
 _atom_site_fract_x
 _atom_site_fract_y
 _atom_site_fract_z
 _atom_site_occupancy
  La  La0  1  0.74999995  0.25000019  0.49999976  1
  Ta  Ta1  1  0.00000000  0.00000000  0.00000000  1
  Ta  Ta2  1  0.25000019  0.74999995  0.49999976  1
  Be  Be3  1  0.50000038  0.50000038  0.00000000  1
