# generated using pymatgen
data_NiAsPd
_symmetry_space_group_name_H-M   'P 1'
_cell_length_a   6.26602369
_cell_length_b   6.26602369
_cell_length_c   3.77836078
_cell_angle_alpha   90.00000000
_cell_angle_beta   90.00000000
_cell_angle_gamma   120.00078917
_symmetry_Int_Tables_number   1
_chemical_formula_structural   NiAsPd
_chemical_formula_sum   'Ni3 As3 Pd3'
_cell_volume   128.47382874
_cell_formula_units_Z   3
loop_
 _symmetry_equiv_pos_site_id
 _symmetry_equiv_pos_as_xyz
  1  'x, y, z'
loop_
 _atom_site_type_symbol
 _atom_site_label
 _atom_site_symmetry_multiplicity
 _atom_site_fract_x
 _atom_site_fract_y
 _atom_site_fract_z
 _atom_site_occupancy
  Ni  Ni0  1  0.25071849  -0.00000061  0.00000000  1
  Ni  Ni1  1  -0.00000061  0.25071849  0.00000000  1
  Ni  Ni2  1  0.74928120  0.74928120  0.00000000  1
  As  As3  1  0.33333233  0.66666223  0.00000000  1
  As  As4  1  0.66666223  0.33333233  0.00000000  1
  As  As5  1  0.00000228  0.00000228  0.49999990  1
  Pd  Pd6  1  0.59136990  0.00000199  0.49999990  1
  Pd  Pd7  1  0.00000199  0.59136990  0.49999990  1
  Pd  Pd8  1  0.40862791  0.40862791  0.49999990  1
