# generated using pymatgen
data_Na2BiAu
_symmetry_space_group_name_H-M   'P 1'
_cell_length_a   6.07299096
_cell_length_b   6.07299096
_cell_length_c   5.96518556
_cell_angle_alpha   90.00000000
_cell_angle_beta   90.00000000
_cell_angle_gamma   102.33898132
_symmetry_Int_Tables_number   1
_chemical_formula_structural   Na2BiAu
_chemical_formula_sum   'Na4 Bi2 Au2'
_cell_volume   214.92133061
_cell_formula_units_Z   2
loop_
 _symmetry_equiv_pos_site_id
 _symmetry_equiv_pos_as_xyz
  1  'x, y, z'
loop_
 _atom_site_type_symbol
 _atom_site_label
 _atom_site_symmetry_multiplicity
 _atom_site_fract_x
 _atom_site_fract_y
 _atom_site_fract_z
 _atom_site_occupancy
  Na  Na0  1  0.86308431  0.50351325  0.75000056  1
  Na  Na1  1  0.13691596  0.49648702  0.25000019  1
  Na  Na2  1  0.50351325  0.86308431  0.75000056  1
  Na  Na3  1  0.49648702  0.13691596  0.25000019  1
  Bi  Bi4  1  0.31405874  0.31405874  0.75000056  1
  Bi  Bi5  1  0.68594153  0.68594153  0.25000019  1
  Au  Au6  1  0.00000000  0.00000000  0.00000000  1
  Au  Au7  1  0.00000000  0.00000000  0.50000037  1
