# generated using pymatgen
data_Ba(MoSe)3
_symmetry_space_group_name_H-M   'P 1'
_cell_length_a   9.02564375
_cell_length_b   9.02573363
_cell_length_c   4.52230312
_cell_angle_alpha   90.00000000
_cell_angle_beta   90.00000000
_cell_angle_gamma   120.00046092
_symmetry_Int_Tables_number   1
_chemical_formula_structural   Ba(MoSe)3
_chemical_formula_sum   'Ba2 Mo6 Se6'
_cell_volume   319.04282628
_cell_formula_units_Z   2
loop_
 _symmetry_equiv_pos_site_id
 _symmetry_equiv_pos_as_xyz
  1  'x, y, z'
loop_
 _atom_site_type_symbol
 _atom_site_label
 _atom_site_symmetry_multiplicity
 _atom_site_fract_x
 _atom_site_fract_y
 _atom_site_fract_z
 _atom_site_occupancy
  Ba  Ba0  1  0.33332927  0.66666541  0.24999983  1
  Ba  Ba1  1  0.66667120  0.33333504  0.74999948  1
  Mo  Mo2  1  0.14982036  0.18442327  0.24999983  1
  Mo  Mo3  1  0.81557416  0.96539423  0.24999983  1
  Mo  Mo4  1  0.03460529  0.85018210  0.24999983  1
  Mo  Mo5  1  0.85018011  0.81557719  0.74999948  1
  Mo  Mo6  1  0.18442631  0.03460622  0.74999948  1
  Mo  Mo7  1  0.96539519  0.14981836  0.74999948  1
  Se  Se8  1  0.92952621  0.30409538  0.24999983  1
  Se  Se9  1  0.69589980  0.62542826  0.24999983  1
  Se  Se10  1  0.37457445  0.07047603  0.24999983  1
  Se  Se11  1  0.07047426  0.69590508  0.74999948  1
  Se  Se12  1  0.30410067  0.37457219  0.74999948  1
  Se  Se13  1  0.62542603  0.92952443  0.74999948  1
