# generated using pymatgen
data_CaBe2P
_symmetry_space_group_name_H-M   'P 1'
_cell_length_a   4.86584769
_cell_length_b   4.86584769
_cell_length_c   4.86584769
_cell_angle_alpha   131.72651000
_cell_angle_beta   131.72651000
_cell_angle_gamma   70.66131910
_symmetry_Int_Tables_number   1
_chemical_formula_structural   CaBe2P
_chemical_formula_sum   'Ca1 Be2 P1'
_cell_volume   62.86400434
_cell_formula_units_Z   1
loop_
 _symmetry_equiv_pos_site_id
 _symmetry_equiv_pos_as_xyz
  1  'x, y, z'
loop_
 _atom_site_type_symbol
 _atom_site_label
 _atom_site_symmetry_multiplicity
 _atom_site_fract_x
 _atom_site_fract_y
 _atom_site_fract_z
 _atom_site_occupancy
  Ca  Ca0  1  0.50000050  0.50000050  0.00000000  1
  Be  Be1  1  0.00000000  0.00000000  0.00000000  1
  Be  Be2  1  0.25000025  0.74999975  0.49999950  1
  P  P3  1  0.74999975  0.25000025  0.49999950  1
