# generated using pymatgen
data_Ba2MnBr
_symmetry_space_group_name_H-M   'P 1'
_cell_length_a   5.83365376
_cell_length_b   5.83365376
_cell_length_c   5.83365376
_cell_angle_alpha   60.00000000
_cell_angle_beta   60.00000000
_cell_angle_gamma   60.00000000
_symmetry_Int_Tables_number   1
_chemical_formula_structural   Ba2MnBr
_chemical_formula_sum   'Ba2 Mn1 Br1'
_cell_volume   140.38055297
_cell_formula_units_Z   1
loop_
 _symmetry_equiv_pos_site_id
 _symmetry_equiv_pos_as_xyz
  1  'x, y, z'
loop_
 _atom_site_type_symbol
 _atom_site_label
 _atom_site_symmetry_multiplicity
 _atom_site_fract_x
 _atom_site_fract_y
 _atom_site_fract_z
 _atom_site_occupancy
  Ba  Ba0  1  0.25000023  0.25000023  0.25000023  1
  Ba  Ba1  1  0.75000070  0.75000070  0.75000070  1
  Mn  Mn2  1  0.50000047  0.50000047  0.50000047  1
  Br  Br3  1  0.00000000  0.00000000  0.00000000  1
