# generated using pymatgen
data_Er3Pd4
_symmetry_space_group_name_H-M   'P 1'
_cell_length_a   7.77428000
_cell_length_b   7.77428000
_cell_length_c   7.77428000
_cell_angle_alpha   114.22618094
_cell_angle_beta   114.22618094
_cell_angle_gamma   114.22618094
_symmetry_Int_Tables_number   1
_chemical_formula_structural   Er3Pd4
_chemical_formula_sum   'Er6 Pd8'
_cell_volume   280.62036890
_cell_formula_units_Z   2
loop_
 _symmetry_equiv_pos_site_id
 _symmetry_equiv_pos_as_xyz
  1  'x, y, z'
loop_
 _atom_site_type_symbol
 _atom_site_label
 _atom_site_symmetry_multiplicity
 _atom_site_fract_x
 _atom_site_fract_y
 _atom_site_fract_z
 _atom_site_occupancy
  Er  Er0  1  0.97670686  0.59528928  0.72502228  1
  Er  Er1  1  0.59528828  0.72502316  0.97670749  1
  Er  Er2  1  0.72502246  0.97670867  0.59528914  1
  Er  Er3  1  0.02329222  0.40471133  0.27497737  1
  Er  Er4  1  0.40471080  0.27497745  0.02329216  1
  Er  Er5  1  0.27497662  0.02329194  0.40471051  1
  Pd  Pd6  1  0.00000000  0.00000000  0.00000000  1
  Pd  Pd7  1  0.49999954  0.50000031  0.49999983  1
  Pd  Pd8  1  0.93527220  0.77017494  0.45164726  1
  Pd  Pd9  1  0.77017325  0.45164739  0.93527208  1
  Pd  Pd10  1  0.45164710  0.93527352  0.77017444  1
  Pd  Pd11  1  0.06472688  0.22982567  0.54835239  1
  Pd  Pd12  1  0.22982583  0.54835322  0.06472757  1
  Pd  Pd13  1  0.54835198  0.06472709  0.22982521  1
