# generated using pymatgen
data_Tb3(CuSn)4
_symmetry_space_group_name_H-M   'P 1'
_cell_length_a   8.44715439
_cell_length_b   8.44715439
_cell_length_c   8.44715439
_cell_angle_alpha   149.31682998
_cell_angle_beta   131.53020235
_cell_angle_gamma   58.46515874
_symmetry_Int_Tables_number   1
_chemical_formula_structural   Tb3(CuSn)4
_chemical_formula_sum   'Tb3 Cu4 Sn4'
_cell_volume   228.48869165
_cell_formula_units_Z   1
loop_
 _symmetry_equiv_pos_site_id
 _symmetry_equiv_pos_as_xyz
  1  'x, y, z'
loop_
 _atom_site_type_symbol
 _atom_site_label
 _atom_site_symmetry_multiplicity
 _atom_site_fract_x
 _atom_site_fract_y
 _atom_site_fract_z
 _atom_site_occupancy
  Tb  Tb0  1  0.36832852  0.86832865  0.50000013  1
  Tb  Tb1  1  0.63167192  0.13167127  0.50000065  1
  Tb  Tb2  1  0.00000000  0.00000000  0.00000000  1
  Cu  Cu3  1  0.64158902  0.32998832  0.31160070  1
  Cu  Cu4  1  0.01838848  0.32998866  0.68840008  1
  Cu  Cu5  1  0.98161196  0.67001126  0.31160070  1
  Cu  Cu6  1  0.35841141  0.67001160  0.68840008  1
  Sn  Sn7  1  0.21591767  0.21591767  0.00000000  1
  Sn  Sn8  1  0.78408191  0.78408191  0.00000000  1
  Sn  Sn9  1  0.70315245  0.49999979  0.20315266  1
  Sn  Sn10  1  0.29684798  0.50000013  0.79684811  1
