# generated using pymatgen
data_BaSiP2
_symmetry_space_group_name_H-M   'P 1'
_cell_length_a   4.70074079
_cell_length_b   4.70074079
_cell_length_c   4.23892259
_cell_angle_alpha   90.00000000
_cell_angle_beta   90.00000000
_cell_angle_gamma   90.00000000
_symmetry_Int_Tables_number   1
_chemical_formula_structural   BaSiP2
_chemical_formula_sum   'Ba1 Si1 P2'
_cell_volume   93.66731977
_cell_formula_units_Z   1
loop_
 _symmetry_equiv_pos_site_id
 _symmetry_equiv_pos_as_xyz
  1  'x, y, z'
loop_
 _atom_site_type_symbol
 _atom_site_label
 _atom_site_symmetry_multiplicity
 _atom_site_fract_x
 _atom_site_fract_y
 _atom_site_fract_z
 _atom_site_occupancy
  Ba  Ba0  1  0.00000000  0.00000000  0.49999969  1
  Si  Si1  1  0.49999992  0.49999992  0.49999969  1
  P  P2  1  0.49999992  0.00000000  0.00000000  1
  P  P3  1  0.00000000  0.49999992  0.00000000  1
