# generated using pymatgen
data_Be2CuMo
_symmetry_space_group_name_H-M   'P 1'
_cell_length_a   4.46063802
_cell_length_b   4.46063802
_cell_length_c   4.46063802
_cell_angle_alpha   133.69530908
_cell_angle_beta   133.69530908
_cell_angle_gamma   67.56429596
_symmetry_Int_Tables_number   1
_chemical_formula_structural   Be2CuMo
_chemical_formula_sum   'Be2 Cu1 Mo1'
_cell_volume   45.61537772
_cell_formula_units_Z   1
loop_
 _symmetry_equiv_pos_site_id
 _symmetry_equiv_pos_as_xyz
  1  'x, y, z'
loop_
 _atom_site_type_symbol
 _atom_site_label
 _atom_site_symmetry_multiplicity
 _atom_site_fract_x
 _atom_site_fract_y
 _atom_site_fract_z
 _atom_site_occupancy
  Be  Be0  1  0.00000000  0.00000000  0.00000000  1
  Be  Be1  1  0.24999974  0.74999928  0.49999954  1
  Cu  Cu2  1  0.49999948  0.49999948  0.00000000  1
  Mo  Mo3  1  0.74999928  0.24999974  0.49999954  1
