# generated using pymatgen
data_Fe2P
_symmetry_space_group_name_H-M   'P 1'
_cell_length_a   5.77678748
_cell_length_b   5.77678748
_cell_length_c   3.44897951
_cell_angle_alpha   90.00000000
_cell_angle_beta   90.00000000
_cell_angle_gamma   119.99984539
_symmetry_Int_Tables_number   1
_chemical_formula_structural   Fe2P
_chemical_formula_sum   'Fe6 P3'
_cell_volume   99.67694176
_cell_formula_units_Z   3
loop_
 _symmetry_equiv_pos_site_id
 _symmetry_equiv_pos_as_xyz
  1  'x, y, z'
loop_
 _atom_site_type_symbol
 _atom_site_label
 _atom_site_symmetry_multiplicity
 _atom_site_fract_x
 _atom_site_fract_y
 _atom_site_fract_z
 _atom_site_occupancy
  Fe  Fe0  1  0.25759456  0.00000819  0.00000000  1
  Fe  Fe1  1  0.00000819  0.25759456  0.00000000  1
  Fe  Fe2  1  0.74240496  0.74240496  0.00000000  1
  Fe  Fe3  1  0.59278031  -0.00002463  0.50000007  1
  Fe  Fe4  1  -0.00002463  0.59278031  0.50000007  1
  Fe  Fe5  1  0.40723030  0.40723030  0.50000007  1
  P  P6  1  -0.00000131  -0.00000131  0.50000007  1
  P  P7  1  0.33332791  0.66667920  0.00000000  1
  P  P8  1  0.66667920  0.33332791  0.00000000  1
