# generated using pymatgen
data_LaGePd2
_symmetry_space_group_name_H-M   'P 1'
_cell_length_a   5.86080434
_cell_length_b   7.81565030
_cell_length_c   7.02705513
_cell_angle_alpha   90.00000000
_cell_angle_beta   90.00000000
_cell_angle_gamma   90.00000000
_symmetry_Int_Tables_number   1
_chemical_formula_structural   LaGePd2
_chemical_formula_sum   'La4 Ge4 Pd8'
_cell_volume   321.88126742
_cell_formula_units_Z   4
loop_
 _symmetry_equiv_pos_site_id
 _symmetry_equiv_pos_as_xyz
  1  'x, y, z'
loop_
 _atom_site_type_symbol
 _atom_site_label
 _atom_site_symmetry_multiplicity
 _atom_site_fract_x
 _atom_site_fract_y
 _atom_site_fract_z
 _atom_site_occupancy
  La  La0  1  0.34622304  0.03473504  0.75000052  1
  La  La1  1  0.84622267  0.46526494  0.25000017  1
  La  La2  1  0.65377622  0.96526492  0.25000017  1
  La  La3  1  0.15377659  0.53473502  0.75000052  1
  Ge  Ge4  1  0.65610506  0.37836058  0.75000052  1
  Ge  Ge5  1  0.15610543  0.12163940  0.25000017  1
  Ge  Ge6  1  0.34389420  0.62163938  0.25000017  1
  Ge  Ge7  1  0.84389383  0.87836056  0.75000052  1
  Pd  Pd8  1  0.91217055  0.17808113  0.94914030  1
  Pd  Pd9  1  0.41217092  0.32191885  0.05086039  1
  Pd  Pd10  1  0.08782871  0.82191883  0.44913996  1
  Pd  Pd11  1  0.58782834  0.67808112  0.55086074  1
  Pd  Pd12  1  0.08782871  0.82191883  0.05086039  1
  Pd  Pd13  1  0.58782834  0.67808112  0.94914030  1
  Pd  Pd14  1  0.91217055  0.17808113  0.55086074  1
  Pd  Pd15  1  0.41217092  0.32191885  0.44913996  1
