# generated using pymatgen
data_Hf9Mo4As
_symmetry_space_group_name_H-M   'P 1'
_cell_length_a   8.65089731
_cell_length_b   8.65089731
_cell_length_c   8.65997576
_cell_angle_alpha   90.00000000
_cell_angle_beta   90.00000000
_cell_angle_gamma   120.00000813
_symmetry_Int_Tables_number   1
_chemical_formula_structural   Hf9Mo4As
_chemical_formula_sum   'Hf18 Mo8 As2'
_cell_volume   561.26710014
_cell_formula_units_Z   2
loop_
 _symmetry_equiv_pos_site_id
 _symmetry_equiv_pos_as_xyz
  1  'x, y, z'
loop_
 _atom_site_type_symbol
 _atom_site_label
 _atom_site_symmetry_multiplicity
 _atom_site_fract_x
 _atom_site_fract_y
 _atom_site_fract_z
 _atom_site_occupancy
  Hf  Hf0  1  0.80374520  0.19625523  0.95731645  1
  Hf  Hf1  1  0.53975975  0.07952011  0.25000012  1
  Hf  Hf2  1  0.92048032  0.46024068  0.25000012  1
  Hf  Hf3  1  0.53975976  0.46024067  0.25000012  1
  Hf  Hf4  1  0.46024068  0.92048032  0.75000037  1
  Hf  Hf5  1  0.46024067  0.53975976  0.75000037  1
  Hf  Hf6  1  0.80374522  0.60748901  0.54268429  1
  Hf  Hf7  1  0.80374520  0.19625523  0.54268429  1
  Hf  Hf8  1  0.39251142  0.19625522  0.54268429  1
  Hf  Hf9  1  0.07952011  0.53975975  0.75000037  1
  Hf  Hf10  1  0.19625523  0.80374520  0.04268404  1
  Hf  Hf11  1  0.60748901  0.80374522  0.04268404  1
  Hf  Hf12  1  0.19625522  0.39251142  0.45731620  1
  Hf  Hf13  1  0.60748901  0.80374522  0.45731620  1
  Hf  Hf14  1  0.19625523  0.80374520  0.45731620  1
  Hf  Hf15  1  0.80374522  0.60748901  0.95731645  1
  Hf  Hf16  1  0.39251142  0.19625522  0.95731645  1
  Hf  Hf17  1  0.19625522  0.39251142  0.04268404  1
  Mo  Mo18  1  0.00000000  0.00000000  0.50000024  1
  Mo  Mo19  1  0.00000000  0.00000000  0.00000000  1
  Mo  Mo20  1  0.88983199  0.77966256  0.25000012  1
  Mo  Mo21  1  0.22033788  0.11016844  0.25000012  1
  Mo  Mo22  1  0.11016846  0.88983197  0.75000037  1
  Mo  Mo23  1  0.11016844  0.22033788  0.75000037  1
  Mo  Mo24  1  0.77966256  0.88983199  0.75000037  1
  Mo  Mo25  1  0.88983197  0.11016846  0.25000012  1
  As  As26  1  0.66666728  0.33333315  0.75000037  1
  As  As27  1  0.33333315  0.66666728  0.25000012  1
