# generated using pymatgen
data_Ba4NaBi
_symmetry_space_group_name_H-M   'P 1'
_cell_length_a   7.33392968
_cell_length_b   7.33392968
_cell_length_c   7.33392968
_cell_angle_alpha   60.00000000
_cell_angle_beta   60.00000000
_cell_angle_gamma   60.00000000
_symmetry_Int_Tables_number   1
_chemical_formula_structural   Ba4NaBi
_chemical_formula_sum   'Ba4 Na1 Bi1'
_cell_volume   278.92999956
_cell_formula_units_Z   1
loop_
 _symmetry_equiv_pos_site_id
 _symmetry_equiv_pos_as_xyz
  1  'x, y, z'
loop_
 _atom_site_type_symbol
 _atom_site_label
 _atom_site_symmetry_multiplicity
 _atom_site_fract_x
 _atom_site_fract_y
 _atom_site_fract_z
 _atom_site_occupancy
  Ba  Ba0  1  0.13109959  0.62296662  0.62296662  1
  Ba  Ba1  1  0.62296662  0.62296662  0.62296662  1
  Ba  Ba2  1  0.62296662  0.13109959  0.62296662  1
  Ba  Ba3  1  0.62296662  0.62296662  0.13109959  1
  Na  Na4  1  0.00000000  0.00000000  0.00000000  1
  Bi  Bi5  1  0.24999993  0.24999993  0.24999993  1
