# generated using pymatgen
data_UAlNi
_symmetry_space_group_name_H-M   'P 1'
_cell_length_a   6.60088251
_cell_length_b   6.60088251
_cell_length_c   4.10043945
_cell_angle_alpha   90.00000000
_cell_angle_beta   90.00000000
_cell_angle_gamma   120.00097054
_symmetry_Int_Tables_number   1
_chemical_formula_structural   UAlNi
_chemical_formula_sum   'U3 Al3 Ni3'
_cell_volume   154.72510767
_cell_formula_units_Z   3
loop_
 _symmetry_equiv_pos_site_id
 _symmetry_equiv_pos_as_xyz
  1  'x, y, z'
loop_
 _atom_site_type_symbol
 _atom_site_label
 _atom_site_symmetry_multiplicity
 _atom_site_fract_x
 _atom_site_fract_y
 _atom_site_fract_z
 _atom_site_occupancy
  U  U0  1  0.57307078  0.99999744  0.50000007  1
  U  U1  1  0.99999744  0.57307078  0.50000007  1
  U  U2  1  0.42692782  0.42692782  0.50000007  1
  Al  Al3  1  0.23596143  0.00000086  0.00000000  1
  Al  Al4  1  0.00000086  0.23596143  0.00000000  1
  Al  Al5  1  0.76403889  0.76403889  0.00000000  1
  Ni  Ni6  1  0.33333313  0.66666738  0.00000000  1
  Ni  Ni7  1  0.66666738  0.33333313  0.00000000  1
  Ni  Ni8  1  -0.00000118  -0.00000118  0.50000007  1
