# generated using pymatgen
data_ScBe2Ge
_symmetry_space_group_name_H-M   'P 1'
_cell_length_a   4.74032222
_cell_length_b   4.74032222
_cell_length_c   4.74032222
_cell_angle_alpha   132.38833210
_cell_angle_beta   132.38833210
_cell_angle_gamma   69.61638574
_symmetry_Int_Tables_number   1
_chemical_formula_structural   ScBe2Ge
_chemical_formula_sum   'Sc1 Be2 Ge1'
_cell_volume   56.99641877
_cell_formula_units_Z   1
loop_
 _symmetry_equiv_pos_site_id
 _symmetry_equiv_pos_as_xyz
  1  'x, y, z'
loop_
 _atom_site_type_symbol
 _atom_site_label
 _atom_site_symmetry_multiplicity
 _atom_site_fract_x
 _atom_site_fract_y
 _atom_site_fract_z
 _atom_site_occupancy
  Sc  Sc0  1  0.75000064  0.24999968  0.50000095  1
  Be  Be1  1  0.00000000  0.00000000  0.00000000  1
  Be  Be2  1  0.49999936  0.49999936  0.00000000  1
  Ge  Ge3  1  0.24999968  0.75000064  0.50000095  1
