# generated using pymatgen
data_TaBeZn2
_symmetry_space_group_name_H-M   'P 1'
_cell_length_a   2.82465150
_cell_length_b   2.82465150
_cell_length_c   6.91374810
_cell_angle_alpha   90.00000000
_cell_angle_beta   90.00000000
_cell_angle_gamma   90.00000000
_symmetry_Int_Tables_number   1
_chemical_formula_structural   TaBeZn2
_chemical_formula_sum   'Ta1 Be1 Zn2'
_cell_volume   55.16241850
_cell_formula_units_Z   1
loop_
 _symmetry_equiv_pos_site_id
 _symmetry_equiv_pos_as_xyz
  1  'x, y, z'
loop_
 _atom_site_type_symbol
 _atom_site_label
 _atom_site_symmetry_multiplicity
 _atom_site_fract_x
 _atom_site_fract_y
 _atom_site_fract_z
 _atom_site_occupancy
  Ta  Ta0  1  0.49999973  0.49999973  0.72401393  1
  Be  Be1  1  0.00000000  0.00000000  0.47635820  1
  Zn  Zn2  1  0.00000000  0.00000000  0.01908155  1
  Zn  Zn3  1  0.49999973  0.49999973  0.28054674  1
