# generated using pymatgen
data_CuBSe2
_symmetry_space_group_name_H-M   'P 1'
_cell_length_a   6.14153612
_cell_length_b   6.14153612
_cell_length_c   6.14153612
_cell_angle_alpha   128.46011512
_cell_angle_beta   128.46011512
_cell_angle_gamma   75.88083639
_symmetry_Int_Tables_number   1
_chemical_formula_structural   CuBSe2
_chemical_formula_sum   'Cu2 B2 Se4'
_cell_volume   138.12498900
_cell_formula_units_Z   2
loop_
 _symmetry_equiv_pos_site_id
 _symmetry_equiv_pos_as_xyz
  1  'x, y, z'
loop_
 _atom_site_type_symbol
 _atom_site_label
 _atom_site_symmetry_multiplicity
 _atom_site_fract_x
 _atom_site_fract_y
 _atom_site_fract_z
 _atom_site_occupancy
  Cu  Cu0  1  0.00000000  0.00000000  0.00000000  1
  Cu  Cu1  1  0.75000088  0.25000021  0.50000067  1
  B  B2  1  0.50000043  0.50000043  0.00000000  1
  B  B3  1  0.25000021  0.75000088  0.50000067  1
  Se  Se4  1  0.57640113  0.62500065  0.45140114  1
  Se  Se5  1  0.17359975  0.12500023  0.54860020  1
  Se  Se6  1  0.87500087  0.42359973  0.04859953  1
  Se  Se7  1  0.37500044  0.82640158  0.95140180  1
