# generated using pymatgen
data_BeCoCl
_symmetry_space_group_name_H-M   'P 1'
_cell_length_a   2.89862304
_cell_length_b   2.89862304
_cell_length_c   5.68859180
_cell_angle_alpha   90.00000000
_cell_angle_beta   90.00000000
_cell_angle_gamma   119.99999425
_symmetry_Int_Tables_number   1
_chemical_formula_structural   BeCoCl
_chemical_formula_sum   'Be1 Co1 Cl1'
_cell_volume   41.39223802
_cell_formula_units_Z   1
loop_
 _symmetry_equiv_pos_site_id
 _symmetry_equiv_pos_as_xyz
  1  'x, y, z'
loop_
 _atom_site_type_symbol
 _atom_site_label
 _atom_site_symmetry_multiplicity
 _atom_site_fract_x
 _atom_site_fract_y
 _atom_site_fract_z
 _atom_site_occupancy
  Be  Be0  1  0.00000000  0.00000000  0.01840080  1
  Co  Co1  1  0.33333251  0.66666636  0.72719505  1
  Cl  Cl2  1  0.66666636  0.33333251  0.25440383  1
