# generated using pymatgen
data_MgBePb2
_symmetry_space_group_name_H-M   'P 1'
_cell_length_a   3.42499179
_cell_length_b   3.42499179
_cell_length_c   8.09502542
_cell_angle_alpha   90.00000000
_cell_angle_beta   90.00000000
_cell_angle_gamma   90.00000000
_symmetry_Int_Tables_number   1
_chemical_formula_structural   MgBePb2
_chemical_formula_sum   'Mg1 Be1 Pb2'
_cell_volume   94.95925223
_cell_formula_units_Z   1
loop_
 _symmetry_equiv_pos_site_id
 _symmetry_equiv_pos_as_xyz
  1  'x, y, z'
loop_
 _atom_site_type_symbol
 _atom_site_label
 _atom_site_symmetry_multiplicity
 _atom_site_fract_x
 _atom_site_fract_y
 _atom_site_fract_z
 _atom_site_occupancy
  Mg  Mg0  1  0.49999974  0.49999974  0.69847016  1
  Be  Be1  1  0.00000000  0.00000000  0.53416629  1
  Pb  Pb2  1  0.00000000  0.00000000  0.94570523  1
  Pb  Pb3  1  0.49999974  0.49999974  0.32165973  1
