# generated using pymatgen
data_LuB4Ru
_symmetry_space_group_name_H-M   'P 1'
_cell_length_a   3.53301633
_cell_length_b   5.89598655
_cell_length_c   11.39623560
_cell_angle_alpha   90.00000000
_cell_angle_beta   90.00000000
_cell_angle_gamma   90.00000000
_symmetry_Int_Tables_number   1
_chemical_formula_structural   LuB4Ru
_chemical_formula_sum   'Lu4 B16 Ru4'
_cell_volume   237.39061658
_cell_formula_units_Z   4
loop_
 _symmetry_equiv_pos_site_id
 _symmetry_equiv_pos_as_xyz
  1  'x, y, z'
loop_
 _atom_site_type_symbol
 _atom_site_label
 _atom_site_symmetry_multiplicity
 _atom_site_fract_x
 _atom_site_fract_y
 _atom_site_fract_z
 _atom_site_occupancy
  Lu  Lu0  1  0.00000000  0.12926023  0.85014878  1
  Lu  Lu1  1  0.00000000  0.87074035  0.14985161  1
  Lu  Lu2  1  0.00000000  0.37074006  0.35014859  1
  Lu  Lu3  1  0.00000000  0.62926052  0.64985180  1
  B  B4  1  0.50000052  0.97632879  0.69285001  1
  B  B5  1  0.50000052  0.02367179  0.30715037  1
  B  B6  1  0.50000052  0.52367209  0.19284982  1
  B  B7  1  0.50000052  0.47632850  0.80715057  1
  B  B8  1  0.50000052  0.88698739  0.54751782  1
  B  B9  1  0.50000052  0.11301320  0.45248257  1
  B  B10  1  0.50000052  0.61301349  0.04751762  1
  B  B11  1  0.50000052  0.38698709  0.95248276  1
  B  B12  1  0.50000052  0.86529450  0.97037449  1
  B  B13  1  0.50000052  0.13470608  0.02962590  1
  B  B14  1  0.50000052  0.63470637  0.47037430  1
  B  B15  1  0.50000052  0.36529421  0.52962609  1
  B  B16  1  0.50000052  0.79206603  0.81391559  1
  B  B17  1  0.50000052  0.20793456  0.18608480  1
  B  B18  1  0.50000052  0.70793485  0.31391539  1
  B  B19  1  0.50000052  0.29206573  0.68608499  1
  Ru  Ru20  1  0.00000000  0.14204963  0.59361328  1
  Ru  Ru21  1  0.00000000  0.85795096  0.40638710  1
  Ru  Ru22  1  0.00000000  0.35795067  0.09361309  1
  Ru  Ru23  1  0.00000000  0.64204992  0.90638730  1
