# generated using pymatgen
data_Dy5S7
_symmetry_space_group_name_H-M   'P 1'
_cell_length_a   6.68139001
_cell_length_b   6.68139001
_cell_length_c   11.58052748
_cell_angle_alpha   75.93757765
_cell_angle_beta   75.93757765
_cell_angle_gamma   33.06528264
_symmetry_Int_Tables_number   1
_chemical_formula_structural   Dy5S7
_chemical_formula_sum   'Dy5 S7'
_cell_volume   272.84366399
_cell_formula_units_Z   1
loop_
 _symmetry_equiv_pos_site_id
 _symmetry_equiv_pos_as_xyz
  1  'x, y, z'
loop_
 _atom_site_type_symbol
 _atom_site_label
 _atom_site_symmetry_multiplicity
 _atom_site_fract_x
 _atom_site_fract_y
 _atom_site_fract_z
 _atom_site_occupancy
  Dy  Dy0  1  0.00000000  0.00000000  0.00000000  1
  Dy  Dy1  1  0.88765261  0.88765261  0.42131800  1
  Dy  Dy2  1  0.11234759  0.11234759  0.57868137  1
  Dy  Dy3  1  0.69956221  0.69956221  0.18846393  1
  Dy  Dy4  1  0.30043799  0.30043799  0.81153544  1
  S  S5  1  0.50000010  0.50000010  0.49999968  1
  S  S6  1  0.34057449  0.34057449  0.05105779  1
  S  S7  1  0.65942571  0.65942571  0.94894157  1
  S  S8  1  0.04085410  0.04085410  0.21534990  1
  S  S9  1  0.95914610  0.95914610  0.78464946  1
  S  S10  1  0.74103518  0.74103518  0.64792923  1
  S  S11  1  0.25896501  0.25896501  0.35207013  1
