# generated using pymatgen
data_CaAlB3O7
_symmetry_space_group_name_H-M   'P 1'
_cell_length_a   7.12373235
_cell_length_b   7.12373235
_cell_length_c   4.40007552
_cell_angle_alpha   90.00000000
_cell_angle_beta   90.00000000
_cell_angle_gamma   111.72704503
_symmetry_Int_Tables_number   1
_chemical_formula_structural   CaAlB3O7
_chemical_formula_sum   'Ca2 Al2 B6 O14'
_cell_volume   207.42990552
_cell_formula_units_Z   2
loop_
 _symmetry_equiv_pos_site_id
 _symmetry_equiv_pos_as_xyz
  1  'x, y, z'
loop_
 _atom_site_type_symbol
 _atom_site_label
 _atom_site_symmetry_multiplicity
 _atom_site_fract_x
 _atom_site_fract_y
 _atom_site_fract_z
 _atom_site_occupancy
  Ca  Ca0  1  0.50000035  0.00000004  0.00000000  1
  Ca  Ca1  1  0.00000004  0.50000035  0.00000000  1
  Al  Al2  1  0.00000000  0.00000000  0.00000000  1
  Al  Al3  1  0.50000039  0.50000039  0.00000000  1
  B  B4  1  0.75000059  0.75000059  0.50000051  1
  B  B5  1  0.25000020  0.25000020  0.50000051  1
  B  B6  1  0.86290847  0.13709231  0.54185244  1
  B  B7  1  0.63709263  0.36290816  0.54185244  1
  B  B8  1  0.36290816  0.63709263  0.45814858  1
  B  B9  1  0.13709231  0.86290847  0.45814858  1
  O  O10  1  0.28035788  0.42640809  0.30052709  1
  O  O11  1  0.21964251  0.07359230  0.30052709  1
  O  O12  1  0.92640848  0.78035827  0.30052709  1
  O  O13  1  0.57359269  0.71964290  0.30052709  1
  O  O14  1  0.71964290  0.57359269  0.69947392  1
  O  O15  1  0.78035827  0.92640848  0.69947392  1
  O  O16  1  0.25000024  0.75000055  0.32931568  1
  O  O17  1  0.36831693  0.63168385  0.77588485  1
  O  O18  1  0.63168385  0.36831693  0.22411617  1
  O  O19  1  0.86831724  0.13168354  0.22411617  1
  O  O20  1  0.42640809  0.28035788  0.69947392  1
  O  O21  1  0.75000055  0.25000024  0.67068533  1
  O  O22  1  0.13168354  0.86831724  0.77588485  1
  O  O23  1  0.07359230  0.21964251  0.69947392  1
