# generated using pymatgen
data_YbGa4Ni
_symmetry_space_group_name_H-M   'P 1'
_cell_length_a   7.88899384
_cell_length_b   7.88899384
_cell_length_c   6.54808509
_cell_angle_alpha   90.00000000
_cell_angle_beta   90.00000000
_cell_angle_gamma   149.85965697
_symmetry_Int_Tables_number   1
_chemical_formula_structural   YbGa4Ni
_chemical_formula_sum   'Yb2 Ga8 Ni2'
_cell_volume   204.62791535
_cell_formula_units_Z   2
loop_
 _symmetry_equiv_pos_site_id
 _symmetry_equiv_pos_as_xyz
  1  'x, y, z'
loop_
 _atom_site_type_symbol
 _atom_site_label
 _atom_site_symmetry_multiplicity
 _atom_site_fract_x
 _atom_site_fract_y
 _atom_site_fract_z
 _atom_site_occupancy
  Yb  Yb0  1  0.62490440  0.37509417  0.75000056  1
  Yb  Yb1  1  0.37509417  0.62490440  0.25000019  1
  Ga  Ga2  1  0.00000000  0.00000000  0.00000000  1
  Ga  Ga3  1  0.00000000  0.00000000  0.50000038  1
  Ga  Ga4  1  0.43202677  0.56797180  0.75000056  1
  Ga  Ga5  1  0.56797180  0.43202677  0.25000019  1
  Ga  Ga6  1  0.81516604  0.18483252  0.95071858  1
  Ga  Ga7  1  0.18483252  0.81516604  0.45071821  1
  Ga  Ga8  1  0.81516604  0.18483252  0.54928254  1
  Ga  Ga9  1  0.18483252  0.81516604  0.04928217  1
  Ni  Ni10  1  0.27695915  0.72303942  0.75000056  1
  Ni  Ni11  1  0.72303942  0.27695915  0.25000019  1
