# generated using pymatgen
data_ZrCr2
_symmetry_space_group_name_H-M   'P 1'
_cell_length_a   5.07119963
_cell_length_b   5.07134046
_cell_length_c   8.06982801
_cell_angle_alpha   90.00000000
_cell_angle_beta   90.00000000
_cell_angle_gamma   119.99908143
_symmetry_Int_Tables_number   1
_chemical_formula_structural   ZrCr2
_chemical_formula_sum   'Zr4 Cr8'
_cell_volume   179.73489617
_cell_formula_units_Z   4
loop_
 _symmetry_equiv_pos_site_id
 _symmetry_equiv_pos_as_xyz
  1  'x, y, z'
loop_
 _atom_site_type_symbol
 _atom_site_label
 _atom_site_symmetry_multiplicity
 _atom_site_fract_x
 _atom_site_fract_y
 _atom_site_fract_z
 _atom_site_occupancy
  Zr  Zr0  1  0.66666752  0.33333465  0.06007663  1
  Zr  Zr1  1  0.33333254  0.66666511  0.56007675  1
  Zr  Zr2  1  0.33333254  0.66666511  0.93992362  1
  Zr  Zr3  1  0.66666752  0.33333465  0.43992350  1
  Cr  Cr4  1  0.00000000  0.00000000  0.00000000  1
  Cr  Cr5  1  0.00000000  0.00000000  0.50000012  1
  Cr  Cr6  1  0.66479599  0.83241803  0.25000006  1
  Cr  Cr7  1  0.16762205  0.83241814  0.25000006  1
  Cr  Cr8  1  0.16761296  0.33522593  0.25000006  1
  Cr  Cr9  1  0.33520407  0.16758173  0.75000018  1
  Cr  Cr10  1  0.83237801  0.16758162  0.75000018  1
  Cr  Cr11  1  0.83238710  0.66477383  0.75000018  1
