# generated using pymatgen
data_TiBeGe
_symmetry_space_group_name_H-M   'P 1'
_cell_length_a   2.83932105
_cell_length_b   2.83932105
_cell_length_c   6.34527468
_cell_angle_alpha   90.00000000
_cell_angle_beta   90.00000000
_cell_angle_gamma   120.00001932
_symmetry_Int_Tables_number   1
_chemical_formula_structural   TiBeGe
_chemical_formula_sum   'Ti1 Be1 Ge1'
_cell_volume   44.30063790
_cell_formula_units_Z   1
loop_
 _symmetry_equiv_pos_site_id
 _symmetry_equiv_pos_as_xyz
  1  'x, y, z'
loop_
 _atom_site_type_symbol
 _atom_site_label
 _atom_site_symmetry_multiplicity
 _atom_site_fract_x
 _atom_site_fract_y
 _atom_site_fract_z
 _atom_site_occupancy
  Ti  Ti0  1  0.66666666  0.33333326  0.32551395  1
  Be  Be1  1  -0.00000000  0.00000000  0.99087899  1
  Ge  Ge2  1  0.33333326  0.66666666  0.68360559  1
