# generated using pymatgen
data_BaTlPb2
_symmetry_space_group_name_H-M   'P 1'
_cell_length_a   4.24727247
_cell_length_b   4.24727247
_cell_length_c   7.61235221
_cell_angle_alpha   90.00000000
_cell_angle_beta   90.00000000
_cell_angle_gamma   90.00000000
_symmetry_Int_Tables_number   1
_chemical_formula_structural   BaTlPb2
_chemical_formula_sum   'Ba1 Tl1 Pb2'
_cell_volume   137.32168333
_cell_formula_units_Z   1
loop_
 _symmetry_equiv_pos_site_id
 _symmetry_equiv_pos_as_xyz
  1  'x, y, z'
loop_
 _atom_site_type_symbol
 _atom_site_label
 _atom_site_symmetry_multiplicity
 _atom_site_fract_x
 _atom_site_fract_y
 _atom_site_fract_z
 _atom_site_occupancy
  Ba  Ba0  1  0.49999971  0.49999971  0.74789027  1
  Tl  Tl1  1  0.00000000  0.00000000  0.46268366  1
  Pb  Pb2  1  0.00000000  0.00000000  0.04485629  1
  Pb  Pb3  1  0.49999971  0.49999971  0.24456935  1
