# generated using pymatgen
data_BeGeTe2
_symmetry_space_group_name_H-M   'P 1'
_cell_length_a   3.21888302
_cell_length_b   3.21888302
_cell_length_c   9.15829181
_cell_angle_alpha   90.00000000
_cell_angle_beta   90.00000000
_cell_angle_gamma   90.00000000
_symmetry_Int_Tables_number   1
_chemical_formula_structural   BeGeTe2
_chemical_formula_sum   'Be1 Ge1 Te2'
_cell_volume   94.89096559
_cell_formula_units_Z   1
loop_
 _symmetry_equiv_pos_site_id
 _symmetry_equiv_pos_as_xyz
  1  'x, y, z'
loop_
 _atom_site_type_symbol
 _atom_site_label
 _atom_site_symmetry_multiplicity
 _atom_site_fract_x
 _atom_site_fract_y
 _atom_site_fract_z
 _atom_site_occupancy
  Be  Be0  1  0.00000000  0.00000000  0.52292849  1
  Ge  Ge1  1  0.49999953  0.49999953  0.65907671  1
  Te  Te2  1  0.00000000  0.00000000  0.97266285  1
  Te  Te3  1  0.49999953  0.49999953  0.34533145  1
