# generated using pymatgen
data_BeSiNi
_symmetry_space_group_name_H-M   'P 1'
_cell_length_a   2.62090858
_cell_length_b   2.62090858
_cell_length_c   5.50866184
_cell_angle_alpha   90.00000000
_cell_angle_beta   90.00000000
_cell_angle_gamma   119.99999869
_symmetry_Int_Tables_number   1
_chemical_formula_structural   BeSiNi
_chemical_formula_sum   'Be1 Si1 Ni1'
_cell_volume   32.77030589
_cell_formula_units_Z   1
loop_
 _symmetry_equiv_pos_site_id
 _symmetry_equiv_pos_as_xyz
  1  'x, y, z'
loop_
 _atom_site_type_symbol
 _atom_site_label
 _atom_site_symmetry_multiplicity
 _atom_site_fract_x
 _atom_site_fract_y
 _atom_site_fract_z
 _atom_site_occupancy
  Be  Be0  1  0.00000000  0.00000000  0.01384204  1
  Si  Si1  1  0.33333160  0.66666510  0.66037922  1
  Ni  Ni2  1  0.66666510  0.33333160  0.32577841  1
