# generated using pymatgen
data_Ba2Ca2Cu3HgO8
_symmetry_space_group_name_H-M   'P 1'
_cell_length_a   3.88071024
_cell_length_b   3.88071024
_cell_length_c   16.07459105
_cell_angle_alpha   90.00000000
_cell_angle_beta   90.00000000
_cell_angle_gamma   90.00000000
_symmetry_Int_Tables_number   1
_chemical_formula_structural   Ba2Ca2Cu3HgO8
_chemical_formula_sum   'Ba2 Ca2 Cu3 Hg1 O8'
_cell_volume   242.08192639
_cell_formula_units_Z   1
loop_
 _symmetry_equiv_pos_site_id
 _symmetry_equiv_pos_as_xyz
  1  'x, y, z'
loop_
 _atom_site_type_symbol
 _atom_site_label
 _atom_site_symmetry_multiplicity
 _atom_site_fract_x
 _atom_site_fract_y
 _atom_site_fract_z
 _atom_site_occupancy
  Ba  Ba0  1  0.49999997  0.49999997  0.18384190  1
  Ba  Ba1  1  0.49999997  0.49999997  0.81615804  1
  Ca  Ca2  1  0.49999997  0.49999997  0.40123574  1
  Ca  Ca3  1  0.49999997  0.49999997  0.59876419  1
  Cu  Cu4  1  0.00000000  0.00000000  0.49999997  1
  Cu  Cu5  1  0.00000000  0.00000000  0.30987822  1
  Cu  Cu6  1  0.00000000  0.00000000  0.69012171  1
  Hg  Hg7  1  0.00000000  0.00000000  0.00000000  1
  O  O8  1  0.49999997  0.00000000  0.30482311  1
  O  O9  1  0.00000000  0.49999997  0.30482311  1
  O  O10  1  0.49999997  0.00000000  0.69517682  1
  O  O11  1  0.00000000  0.49999997  0.69517682  1
  O  O12  1  0.00000000  0.00000000  0.12538777  1
  O  O13  1  0.00000000  0.00000000  0.87461216  1
  O  O14  1  0.00000000  0.49999997  0.49999997  1
  O  O15  1  0.49999997  0.00000000  0.49999997  1
