# generated using pymatgen
data_KSb(PO4)2
_symmetry_space_group_name_H-M   'P 1'
_cell_length_a   8.57139879
_cell_length_b   8.57139879
_cell_length_c   8.57139879
_cell_angle_alpha   32.54806817
_cell_angle_beta   32.54806817
_cell_angle_gamma   32.54806817
_symmetry_Int_Tables_number   1
_chemical_formula_structural   KSb(PO4)2
_chemical_formula_sum   'K1 Sb1 P2 O8'
_cell_volume   162.09253087
_cell_formula_units_Z   1
loop_
 _symmetry_equiv_pos_site_id
 _symmetry_equiv_pos_as_xyz
  1  'x, y, z'
loop_
 _atom_site_type_symbol
 _atom_site_label
 _atom_site_symmetry_multiplicity
 _atom_site_fract_x
 _atom_site_fract_y
 _atom_site_fract_z
 _atom_site_occupancy
  K  K0  1  0.49999956  0.49999956  0.50000126  1
  Sb  Sb1  1  0.00000000  0.00000000  0.00000000  1
  P  P2  1  0.26052382  0.26052382  0.26052471  1
  P  P3  1  0.73947529  0.73947529  0.73947781  1
  O  O4  1  0.19952589  0.19952589  0.19952657  1
  O  O5  1  0.80047322  0.80047322  0.80047595  1
  O  O6  1  0.00941865  0.40032074  0.73664087  1
  O  O7  1  0.73664012  0.00941831  0.40032166  1
  O  O8  1  0.40032000  0.73663972  0.00942015  1
  O  O9  1  0.99058046  0.59967837  0.26336164  1
  O  O10  1  0.26335899  0.99058080  0.59968086  1
  O  O11  1  0.59967911  0.26335939  0.99058237  1
