# generated using pymatgen
data_TlTe
_symmetry_space_group_name_H-M   'P 1'
_cell_length_a   9.81798787
_cell_length_b   9.81798787
_cell_length_c   9.81798787
_cell_angle_alpha   95.78614622
_cell_angle_beta   95.78614622
_cell_angle_gamma   142.97458910
_symmetry_Int_Tables_number   1
_chemical_formula_structural   TlTe
_chemical_formula_sum   'Tl8 Te8'
_cell_volume   540.39376956
_cell_formula_units_Z   8
loop_
 _symmetry_equiv_pos_site_id
 _symmetry_equiv_pos_as_xyz
  1  'x, y, z'
loop_
 _atom_site_type_symbol
 _atom_site_label
 _atom_site_symmetry_multiplicity
 _atom_site_fract_x
 _atom_site_fract_y
 _atom_site_fract_z
 _atom_site_occupancy
  Tl  Tl0  1  0.07914775  0.22931036  0.30845811  1
  Tl  Tl1  1  0.92085252  0.77068990  0.69154173  1
  Tl  Tl2  1  0.77068947  0.07914775  0.84983722  1
  Tl  Tl3  1  0.22931079  0.92085252  0.15016262  1
  Tl  Tl4  1  0.42085260  0.72931071  0.15016262  1
  Tl  Tl5  1  0.57914767  0.27068955  0.84983722  1
  Tl  Tl6  1  0.72931071  0.57914809  0.30845811  1
  Tl  Tl7  1  0.27068955  0.42085217  0.69154173  1
  Te  Te8  1  0.16380480  0.66380472  0.82760953  1
  Te  Te9  1  0.83619546  0.33619554  0.17239031  1
  Te  Te10  1  0.33619511  0.16380480  0.49999992  1
  Te  Te11  1  0.66380515  0.83619546  0.49999992  1
  Te  Te12  1  0.00000000  0.49999992  0.49999992  1
  Te  Te13  1  0.49999992  0.00000000  0.49999992  1
  Te  Te14  1  0.75000052  0.75000052  0.00000000  1
  Te  Te15  1  0.25000017  0.25000017  0.00000000  1
