# generated using pymatgen
data_BeVSe
_symmetry_space_group_name_H-M   'P 1'
_cell_length_a   3.06638183
_cell_length_b   3.06638183
_cell_length_c   5.72280373
_cell_angle_alpha   90.00000000
_cell_angle_beta   90.00000000
_cell_angle_gamma   120.00000146
_symmetry_Int_Tables_number   1
_chemical_formula_structural   BeVSe
_chemical_formula_sum   'Be1 V1 Se1'
_cell_volume   46.60064663
_cell_formula_units_Z   1
loop_
 _symmetry_equiv_pos_site_id
 _symmetry_equiv_pos_as_xyz
  1  'x, y, z'
loop_
 _atom_site_type_symbol
 _atom_site_label
 _atom_site_symmetry_multiplicity
 _atom_site_fract_x
 _atom_site_fract_y
 _atom_site_fract_z
 _atom_site_occupancy
  Be  Be0  1  0.00000000  0.00000000  0.03299967  1
  V  V1  1  0.66666642  0.33333300  0.33811967  1
  Se  Se2  1  0.33333300  0.66666642  0.62887901  1
