# generated using pymatgen
data_KAlH6(OF3)2
_symmetry_space_group_name_H-M   'P 1'
_cell_length_a   8.65376995
_cell_length_b   8.65376995
_cell_length_c   8.65376995
_cell_angle_alpha   90.00000000
_cell_angle_beta   90.00000000
_cell_angle_gamma   90.00000000
_symmetry_Int_Tables_number   1
_chemical_formula_structural   KAlH6(OF3)2
_chemical_formula_sum   'K4 Al4 H24 O8 F24'
_cell_volume   648.06122446
_cell_formula_units_Z   4
loop_
 _symmetry_equiv_pos_site_id
 _symmetry_equiv_pos_as_xyz
  1  'x, y, z'
loop_
 _atom_site_type_symbol
 _atom_site_label
 _atom_site_symmetry_multiplicity
 _atom_site_fract_x
 _atom_site_fract_y
 _atom_site_fract_z
 _atom_site_occupancy
  K  K0  1  0.00000000  0.00000000  0.00000000  1
  K  K1  1  0.50000000  0.00000000  0.50000000  1
  K  K2  1  0.00000000  0.50000000  0.50000000  1
  K  K3  1  0.50000000  0.50000000  0.00000000  1
  Al  Al4  1  0.50000000  0.00000000  0.00000000  1
  Al  Al5  1  0.00000000  0.00000000  0.50000000  1
  Al  Al6  1  0.50000000  0.50000000  0.50000000  1
  Al  Al7  1  0.00000000  0.50000000  0.00000000  1
  H  H8  1  0.30077683  0.29752257  0.63805175  1
  H  H9  1  0.19922317  0.70247744  0.13805175  1
  H  H10  1  0.86194826  0.69922317  0.79752257  1
  H  H11  1  0.36194826  0.80077684  0.20247743  1
  H  H12  1  0.20247743  0.36194826  0.80077684  1
  H  H13  1  0.13805175  0.19922317  0.70247744  1
  H  H14  1  0.79752257  0.86194826  0.69922317  1
  H  H15  1  0.80077684  0.20247743  0.36194826  1
  H  H16  1  0.29752257  0.63805175  0.30077683  1
  H  H17  1  0.63805175  0.30077683  0.29752257  1
  H  H18  1  0.69922317  0.79752257  0.86194826  1
  H  H19  1  0.70247744  0.13805175  0.19922317  1
  H  H20  1  0.70247744  0.36194826  0.69922317  1
  H  H21  1  0.79752257  0.63805175  0.19922317  1
  H  H22  1  0.20247743  0.13805175  0.30077683  1
  H  H23  1  0.86194826  0.80077684  0.29752257  1
  H  H24  1  0.36194826  0.69922317  0.70247744  1
  H  H25  1  0.63805175  0.19922317  0.79752257  1
  H  H26  1  0.13805175  0.30077683  0.20247743  1
  H  H27  1  0.80077684  0.29752257  0.86194826  1
  H  H28  1  0.69922317  0.70247744  0.36194826  1
  H  H29  1  0.19922317  0.79752257  0.63805175  1
  H  H30  1  0.30077683  0.20247743  0.13805175  1
  H  H31  1  0.29752257  0.86194826  0.80077684  1
  O  O32  1  0.30351380  0.69648621  0.19648621  1
  O  O33  1  0.19648621  0.30351380  0.69648621  1
  O  O34  1  0.69648621  0.19648621  0.30351380  1
  O  O35  1  0.80351380  0.80351380  0.80351380  1
  O  O36  1  0.69648621  0.30351380  0.80351380  1
  O  O37  1  0.80351380  0.69648621  0.30351380  1
  O  O38  1  0.30351380  0.80351380  0.69648621  1
  O  O39  1  0.19648621  0.19648621  0.19648621  1
  F  F40  1  0.80213358  0.95192744  0.55918261  1
  F  F41  1  0.19786642  0.45192744  0.94081740  1
  F  F42  1  0.04807256  0.05918261  0.69786643  1
  F  F43  1  0.54807257  0.44081739  0.30213358  1
  F  F44  1  0.45192744  0.94081740  0.19786642  1
  F  F45  1  0.95192744  0.55918261  0.80213358  1
  F  F46  1  0.05918261  0.69786643  0.04807256  1
  F  F47  1  0.44081739  0.30213358  0.54807257  1
  F  F48  1  0.94081740  0.19786642  0.45192744  1
  F  F49  1  0.55918261  0.80213358  0.95192744  1
  F  F50  1  0.30213358  0.95192744  0.94081740  1
  F  F51  1  0.05918261  0.80213358  0.54807257  1
  F  F52  1  0.80213358  0.54807257  0.05918261  1
  F  F53  1  0.19786642  0.04807256  0.44081739  1
  F  F54  1  0.95192744  0.94081740  0.30213358  1
  F  F55  1  0.45192744  0.55918261  0.69786643  1
  F  F56  1  0.54807257  0.05918261  0.80213358  1
  F  F57  1  0.04807256  0.44081739  0.19786642  1
  F  F58  1  0.94081740  0.30213358  0.95192744  1
  F  F59  1  0.55918261  0.69786643  0.45192744  1
  F  F60  1  0.44081739  0.19786642  0.04807256  1
  F  F61  1  0.30213358  0.54807257  0.44081739  1
  F  F62  1  0.69786643  0.45192744  0.55918261  1
  F  F63  1  0.69786643  0.04807256  0.05918261  1
