# generated using pymatgen
data_CaBeSb
_symmetry_space_group_name_H-M   'P 1'
_cell_length_a   5.85324608
_cell_length_b   5.85324608
_cell_length_c   5.85324608
_cell_angle_alpha   144.14788122
_cell_angle_beta   144.14788122
_cell_angle_gamma   51.60621555
_symmetry_Int_Tables_number   1
_chemical_formula_structural   CaBeSb
_chemical_formula_sum   'Ca1 Be1 Sb1'
_cell_volume   68.41361701
_cell_formula_units_Z   1
loop_
 _symmetry_equiv_pos_site_id
 _symmetry_equiv_pos_as_xyz
  1  'x, y, z'
loop_
 _atom_site_type_symbol
 _atom_site_label
 _atom_site_symmetry_multiplicity
 _atom_site_fract_x
 _atom_site_fract_y
 _atom_site_fract_z
 _atom_site_occupancy
  Ca  Ca0  1  0.33442317  0.33442317  0.00000000  1
  Be  Be1  1  0.03837773  0.03837773  0.00000000  1
  Sb  Sb2  1  0.62719927  0.62719927  0.00000000  1
