# generated using pymatgen
data_LaCuTeO
_symmetry_space_group_name_H-M   'P 1'
_cell_length_a   4.18566774
_cell_length_b   4.18566774
_cell_length_c   9.34851334
_cell_angle_alpha   90.00000000
_cell_angle_beta   90.00000000
_cell_angle_gamma   90.00000000
_symmetry_Int_Tables_number   1
_chemical_formula_structural   LaCuTeO
_chemical_formula_sum   'La2 Cu2 Te2 O2'
_cell_volume   163.78421896
_cell_formula_units_Z   2
loop_
 _symmetry_equiv_pos_site_id
 _symmetry_equiv_pos_as_xyz
  1  'x, y, z'
loop_
 _atom_site_type_symbol
 _atom_site_label
 _atom_site_symmetry_multiplicity
 _atom_site_fract_x
 _atom_site_fract_y
 _atom_site_fract_z
 _atom_site_occupancy
  La  La0  1  0.25000013  0.25000013  0.62690878  1
  La  La1  1  0.75000040  0.75000040  0.37309086  1
  Cu  Cu2  1  0.75000040  0.25000013  0.00000000  1
  Cu  Cu3  1  0.25000013  0.75000040  0.00000000  1
  Te  Te4  1  0.25000013  0.25000013  0.17756163  1
  Te  Te5  1  0.75000040  0.75000040  0.82243801  1
  O  O6  1  0.75000040  0.25000013  0.49999982  1
  O  O7  1  0.25000013  0.75000040  0.49999982  1
