# generated using pymatgen
data_Dy3AlNiS7
_symmetry_space_group_name_H-M   'P 1'
_cell_length_a   9.49028351
_cell_length_b   6.18533353
_cell_length_c   9.49020821
_cell_angle_alpha   90.00000000
_cell_angle_beta   119.99998753
_cell_angle_gamma   90.00000000
_symmetry_Int_Tables_number   1
_chemical_formula_structural   Dy3AlNiS7
_chemical_formula_sum   'Dy6 Al2 Ni2 S14'
_cell_volume   482.44602953
_cell_formula_units_Z   2
loop_
 _symmetry_equiv_pos_site_id
 _symmetry_equiv_pos_as_xyz
  1  'x, y, z'
loop_
 _atom_site_type_symbol
 _atom_site_label
 _atom_site_symmetry_multiplicity
 _atom_site_fract_x
 _atom_site_fract_y
 _atom_site_fract_z
 _atom_site_occupancy
  Dy  Dy0  1  0.62381560  0.22845494  0.78351875  1
  Dy  Dy1  1  0.21647979  0.22845783  0.84029381  1
  Dy  Dy2  1  0.15970988  0.22845285  0.37618934  1
  Dy  Dy3  1  0.37618420  0.72845466  0.21648091  1
  Dy  Dy4  1  0.78352000  0.72845754  0.15970585  1
  Dy  Dy5  1  0.84028991  0.72845256  0.62381032  1
  Al  Al6  1  0.33333153  0.65605241  0.66666934  1
  Al  Al7  1  0.66666826  0.15605270  0.33333031  1
  Ni  Ni8  1  0.00000065  0.05591662  -0.00000136  1
  Ni  Ni9  1  -0.00000065  0.55591633  0.00000136  1
  S  S10  1  0.56301875  0.00203065  0.47636536  1
  S  S11  1  0.91333995  0.00202902  0.43697732  1
  S  S12  1  0.52363601  0.00202789  0.08665902  1
  S  S13  1  0.43698104  0.50203037  0.52363430  1
  S  S14  1  0.08665984  0.50202873  0.56302234  1
  S  S15  1  0.47636378  0.50202761  0.91334064  1
  S  S16  1  0.13087473  0.82065508  0.89705958  1
  S  S17  1  0.86912506  0.32065536  0.10294008  1
  S  S18  1  0.23381365  0.32065710  0.13087404  1
  S  S19  1  0.10293740  0.82065702  0.23381493  1
  S  S20  1  0.33333451  0.01760665  0.66666706  1
  S  S21  1  0.76618615  0.82065682  0.86912562  1
  S  S22  1  0.89706239  0.32065731  0.76618473  1
  S  S23  1  0.66666529  0.51760636  0.33333260  1
