# generated using pymatgen
data_BeCrW
_symmetry_space_group_name_H-M   'P 1'
_cell_length_a   5.85913708
_cell_length_b   5.85913708
_cell_length_c   5.85913708
_cell_angle_alpha   154.59335455
_cell_angle_beta   154.59335455
_cell_angle_gamma   36.23774380
_symmetry_Int_Tables_number   1
_chemical_formula_structural   BeCrW
_chemical_formula_sum   'Be1 Cr1 W1'
_cell_volume   36.97727696
_cell_formula_units_Z   1
loop_
 _symmetry_equiv_pos_site_id
 _symmetry_equiv_pos_as_xyz
  1  'x, y, z'
loop_
 _atom_site_type_symbol
 _atom_site_label
 _atom_site_symmetry_multiplicity
 _atom_site_fract_x
 _atom_site_fract_y
 _atom_site_fract_z
 _atom_site_occupancy
  Be  Be0  1  0.99363198  0.99363198  0.00000000  1
  Cr  Cr1  1  0.35130866  0.35130866  0.00000000  1
  W  W2  1  0.65505860  0.65505860  0.00000000  1
