# generated using pymatgen
data_K2BeSb
_symmetry_space_group_name_H-M   'P 1'
_cell_length_a   5.61987236
_cell_length_b   5.61987236
_cell_length_c   5.61987236
_cell_angle_alpha   123.90701596
_cell_angle_beta   123.90701596
_cell_angle_gamma   83.35637434
_symmetry_Int_Tables_number   1
_chemical_formula_structural   K2BeSb
_chemical_formula_sum   'K2 Be1 Sb1'
_cell_volume   117.23023396
_cell_formula_units_Z   1
loop_
 _symmetry_equiv_pos_site_id
 _symmetry_equiv_pos_as_xyz
  1  'x, y, z'
loop_
 _atom_site_type_symbol
 _atom_site_label
 _atom_site_symmetry_multiplicity
 _atom_site_fract_x
 _atom_site_fract_y
 _atom_site_fract_z
 _atom_site_occupancy
  K  K0  1  0.00000000  0.00000000  0.00000000  1
  K  K1  1  0.24999975  0.75000054  0.50000080  1
  Be  Be2  1  0.75000054  0.24999975  0.50000080  1
  Sb  Sb3  1  0.49999949  0.49999949  0.00000000  1
