# generated using pymatgen
data_Be2FePt
_symmetry_space_group_name_H-M   'P 1'
_cell_length_a   2.75055298
_cell_length_b   2.75055298
_cell_length_c   5.62803829
_cell_angle_alpha   90.00000000
_cell_angle_beta   90.00000000
_cell_angle_gamma   90.00000000
_symmetry_Int_Tables_number   1
_chemical_formula_structural   Be2FePt
_chemical_formula_sum   'Be2 Fe1 Pt1'
_cell_volume   42.57915843
_cell_formula_units_Z   1
loop_
 _symmetry_equiv_pos_site_id
 _symmetry_equiv_pos_as_xyz
  1  'x, y, z'
loop_
 _atom_site_type_symbol
 _atom_site_label
 _atom_site_symmetry_multiplicity
 _atom_site_fract_x
 _atom_site_fract_y
 _atom_site_fract_z
 _atom_site_occupancy
  Be  Be0  1  0.00000000  0.00000000  0.02916814  1
  Be  Be1  1  0.49999946  0.49999946  0.23166467  1
  Fe  Fe2  1  0.00000000  0.00000000  0.45274991  1
  Pt  Pt3  1  0.49999946  0.49999946  0.78641774  1
