# generated using pymatgen
data_ZrGe
_symmetry_space_group_name_H-M   'P 1'
_cell_length_a   3.93990441
_cell_length_b   5.42137018
_cell_length_c   7.11634538
_cell_angle_alpha   90.00000000
_cell_angle_beta   90.00000000
_cell_angle_gamma   90.00000000
_symmetry_Int_Tables_number   1
_chemical_formula_structural   ZrGe
_chemical_formula_sum   'Zr4 Ge4'
_cell_volume   152.00286201
_cell_formula_units_Z   4
loop_
 _symmetry_equiv_pos_site_id
 _symmetry_equiv_pos_as_xyz
  1  'x, y, z'
loop_
 _atom_site_type_symbol
 _atom_site_label
 _atom_site_symmetry_multiplicity
 _atom_site_fract_x
 _atom_site_fract_y
 _atom_site_fract_z
 _atom_site_occupancy
  Zr  Zr0  1  0.74999916  0.86604266  0.17786145  1
  Zr  Zr1  1  0.24999972  0.36604268  0.32213888  1
  Zr  Zr2  1  0.24999972  0.13395730  0.82213920  1
  Zr  Zr3  1  0.74999916  0.63395729  0.67786177  1
  Ge  Ge4  1  0.74999916  0.34344298  0.04886509  1
  Ge  Ge5  1  0.24999972  0.84344296  0.45113523  1
  Ge  Ge6  1  0.24999972  0.65655699  0.95113556  1
  Ge  Ge7  1  0.74999916  0.15655700  0.54886542  1
