# generated using pymatgen
data_MnWO4
_symmetry_space_group_name_H-M   'P 1'
_cell_length_a   5.74624969
_cell_length_b   4.72144284
_cell_length_c   5.02145493
_cell_angle_alpha   88.77163438
_cell_angle_beta   90.00000000
_cell_angle_gamma   90.00000000
_symmetry_Int_Tables_number   1
_chemical_formula_structural   MnWO4
_chemical_formula_sum   'Mn2 W2 O8'
_cell_volume   136.20372432
_cell_formula_units_Z   2
loop_
 _symmetry_equiv_pos_site_id
 _symmetry_equiv_pos_as_xyz
  1  'x, y, z'
loop_
 _atom_site_type_symbol
 _atom_site_label
 _atom_site_symmetry_multiplicity
 _atom_site_fract_x
 _atom_site_fract_y
 _atom_site_fract_z
 _atom_site_occupancy
  Mn  Mn0  1  0.67250202  0.50000014  0.24999937  1
  Mn  Mn1  1  0.32749803  0.49999978  0.74999901  1
  W  W2  1  0.17623861  -0.00000018  0.24999982  1
  W  W3  1  0.82376145  -0.00000055  0.74999946  1
  O  O4  1  0.10766733  0.78216823  0.93521427  1
  O  O5  1  0.10766733  0.21783132  0.56478375  1
  O  O6  1  0.89233272  0.21783169  0.06478411  1
  O  O7  1  0.89233272  0.78216860  0.43521463  1
  O  O8  1  0.37667164  0.74053710  0.40402832  1
  O  O9  1  0.37667164  0.25946318  0.09597042  1
  O  O10  1  0.62332841  0.25946282  0.59597006  1
  O  O11  1  0.62332841  0.74053674  0.90402796  1
