# generated using pymatgen
data_Sc(P2Rh3)2
_symmetry_space_group_name_H-M   'P 1'
_cell_length_a   7.00608575
_cell_length_b   7.00608464
_cell_length_c   3.71115562
_cell_angle_alpha   89.99998885
_cell_angle_beta   89.99996664
_cell_angle_gamma   120.00004704
_symmetry_Int_Tables_number   1
_chemical_formula_structural   Sc(P2Rh3)2
_chemical_formula_sum   'Sc1 P4 Rh6'
_cell_volume   157.75764683
_cell_formula_units_Z   1
loop_
 _symmetry_equiv_pos_site_id
 _symmetry_equiv_pos_as_xyz
  1  'x, y, z'
loop_
 _atom_site_type_symbol
 _atom_site_label
 _atom_site_symmetry_multiplicity
 _atom_site_fract_x
 _atom_site_fract_y
 _atom_site_fract_z
 _atom_site_occupancy
  Sc  Sc0  1  0.00000204  0.00000460  -0.00000079  1
  P  P1  1  0.66666955  0.33334025  -0.00000283  1
  P  P2  1  0.19486547  0.36521534  0.50000133  1
  P  P3  1  0.63479210  0.82965865  0.50000141  1
  P  P4  1  0.17035158  0.80514298  0.50000059  1
  Rh  Rh5  1  0.50419007  0.93374918  0.00000065  1
  Rh  Rh6  1  0.06626061  0.57045041  -0.00000038  1
  Rh  Rh7  1  0.42955835  0.49581913  -0.00000006  1
  Rh  Rh8  1  0.78482518  0.61172066  0.49999972  1
  Rh  Rh9  1  0.38828883  0.17311415  0.50000057  1
  Rh  Rh10  1  0.82689509  0.21518427  0.50000008  1
