# generated using pymatgen
data_YbSiPt
_symmetry_space_group_name_H-M   'P 1'
_cell_length_a   4.35121267
_cell_length_b   7.05183632
_cell_length_c   7.22988597
_cell_angle_alpha   90.00000000
_cell_angle_beta   90.00000000
_cell_angle_gamma   90.00000000
_symmetry_Int_Tables_number   1
_chemical_formula_structural   YbSiPt
_chemical_formula_sum   'Yb4 Si4 Pt4'
_cell_volume   221.84210727
_cell_formula_units_Z   4
loop_
 _symmetry_equiv_pos_site_id
 _symmetry_equiv_pos_as_xyz
  1  'x, y, z'
loop_
 _atom_site_type_symbol
 _atom_site_label
 _atom_site_symmetry_multiplicity
 _atom_site_fract_x
 _atom_site_fract_y
 _atom_site_fract_z
 _atom_site_occupancy
  Yb  Yb0  1  0.24999985  0.48896583  0.68804703  1
  Yb  Yb1  1  0.74999954  0.01103443  0.18804675  1
  Yb  Yb2  1  0.74999954  0.51103469  0.31195353  1
  Yb  Yb3  1  0.24999985  0.98896609  0.81195381  1
  Si  Si4  1  0.24999985  0.82796231  0.42108534  1
  Si  Si5  1  0.74999954  0.67203847  0.92108562  1
  Si  Si6  1  0.74999954  0.17203821  0.57891522  1
  Si  Si7  1  0.24999985  0.32796205  0.07891494  1
  Pt  Pt8  1  0.24999985  0.19710029  0.39896890  1
  Pt  Pt9  1  0.74999954  0.30289997  0.89896917  1
  Pt  Pt10  1  0.74999954  0.80290023  0.60103166  1
  Pt  Pt11  1  0.24999985  0.69710055  0.10103138  1
