# generated using pymatgen
data_Ce(NiSb)2
_symmetry_space_group_name_H-M   'P 1'
_cell_length_a   4.51517812
_cell_length_b   4.51517812
_cell_length_c   9.81330231
_cell_angle_alpha   90.00000000
_cell_angle_beta   90.00000000
_cell_angle_gamma   90.00000000
_symmetry_Int_Tables_number   1
_chemical_formula_structural   Ce(NiSb)2
_chemical_formula_sum   'Ce2 Ni4 Sb4'
_cell_volume   200.06215943
_cell_formula_units_Z   2
loop_
 _symmetry_equiv_pos_site_id
 _symmetry_equiv_pos_as_xyz
  1  'x, y, z'
loop_
 _atom_site_type_symbol
 _atom_site_label
 _atom_site_symmetry_multiplicity
 _atom_site_fract_x
 _atom_site_fract_y
 _atom_site_fract_z
 _atom_site_occupancy
  Ce  Ce0  1  0.25000010  0.25000010  0.76358537  1
  Ce  Ce1  1  0.75000031  0.75000031  0.23641439  1
  Ni  Ni2  1  0.75000031  0.25000010  0.00000000  1
  Ni  Ni3  1  0.25000010  0.75000031  0.00000000  1
  Ni  Ni4  1  0.25000010  0.25000010  0.37936648  1
  Ni  Ni5  1  0.75000031  0.75000031  0.62063328  1
  Sb  Sb6  1  0.75000031  0.25000010  0.49999988  1
  Sb  Sb7  1  0.25000010  0.75000031  0.49999988  1
  Sb  Sb8  1  0.25000010  0.25000010  0.12645263  1
  Sb  Sb9  1  0.75000031  0.75000031  0.87354714  1
