# generated using pymatgen
data_Be2WSe
_symmetry_space_group_name_H-M   'P 1'
_cell_length_a   4.86729472
_cell_length_b   4.86729472
_cell_length_c   4.86729472
_cell_angle_alpha   138.28646018
_cell_angle_beta   138.28646018
_cell_angle_gamma   60.46455367
_symmetry_Int_Tables_number   1
_chemical_formula_structural   Be2WSe
_chemical_formula_sum   'Be2 W1 Se1'
_cell_volume   50.51413028
_cell_formula_units_Z   1
loop_
 _symmetry_equiv_pos_site_id
 _symmetry_equiv_pos_as_xyz
  1  'x, y, z'
loop_
 _atom_site_type_symbol
 _atom_site_label
 _atom_site_symmetry_multiplicity
 _atom_site_fract_x
 _atom_site_fract_y
 _atom_site_fract_z
 _atom_site_occupancy
  Be  Be0  1  0.00000000  0.00000000  0.00000000  1
  Be  Be1  1  0.24999998  0.75000065  0.50000066  1
  W  W2  1  0.75000065  0.24999998  0.50000066  1
  Se  Se3  1  0.49999997  0.49999997  0.00000000  1
