# generated using pymatgen
data_BeTcCl4
_symmetry_space_group_name_H-M   'P 1'
_cell_length_a   5.78008855
_cell_length_b   5.78008855
_cell_length_c   5.78008855
_cell_angle_alpha   60.00000000
_cell_angle_beta   60.00000000
_cell_angle_gamma   60.00000000
_symmetry_Int_Tables_number   1
_chemical_formula_structural   BeTcCl4
_chemical_formula_sum   'Be1 Tc1 Cl4'
_cell_volume   136.54898547
_cell_formula_units_Z   1
loop_
 _symmetry_equiv_pos_site_id
 _symmetry_equiv_pos_as_xyz
  1  'x, y, z'
loop_
 _atom_site_type_symbol
 _atom_site_label
 _atom_site_symmetry_multiplicity
 _atom_site_fract_x
 _atom_site_fract_y
 _atom_site_fract_z
 _atom_site_occupancy
  Be  Be0  1  0.00000000  0.00000000  0.00000000  1
  Tc  Tc1  1  0.25000001  0.25000001  0.25000001  1
  Cl  Cl2  1  0.12493295  0.62502205  0.62502205  1
  Cl  Cl3  1  0.62502205  0.62502205  0.62502205  1
  Cl  Cl4  1  0.62502205  0.12493295  0.62502205  1
  Cl  Cl5  1  0.62502205  0.62502205  0.12493295  1
