# generated using pymatgen
data_YBe2Co
_symmetry_space_group_name_H-M   'P 1'
_cell_length_a   2.89894459
_cell_length_b   2.89894459
_cell_length_c   6.31948776
_cell_angle_alpha   90.00000000
_cell_angle_beta   90.00000000
_cell_angle_gamma   90.00000000
_symmetry_Int_Tables_number   1
_chemical_formula_structural   YBe2Co
_chemical_formula_sum   'Y1 Be2 Co1'
_cell_volume   53.10821524
_cell_formula_units_Z   1
loop_
 _symmetry_equiv_pos_site_id
 _symmetry_equiv_pos_as_xyz
  1  'x, y, z'
loop_
 _atom_site_type_symbol
 _atom_site_label
 _atom_site_symmetry_multiplicity
 _atom_site_fract_x
 _atom_site_fract_y
 _atom_site_fract_z
 _atom_site_occupancy
  Y  Y0  1  0.49999921  0.49999921  0.50000018  1
  Be  Be1  1  0.00000000  0.00000000  0.83418061  1
  Be  Be2  1  0.00000000  0.00000000  0.16581974  1
  Co  Co3  1  0.49999921  0.49999921  0.00000000  1
