# generated using pymatgen
data_Nd(Mo3Se4)2
_symmetry_space_group_name_H-M   'P 1'
_cell_length_a   6.81524613
_cell_length_b   6.81524613
_cell_length_c   6.81524613
_cell_angle_alpha   88.70186413
_cell_angle_beta   88.70186413
_cell_angle_gamma   88.70186413
_symmetry_Int_Tables_number   1
_chemical_formula_structural   Nd(Mo3Se4)2
_chemical_formula_sum   'Nd1 Mo6 Se8'
_cell_volume   316.31157814
_cell_formula_units_Z   1
loop_
 _symmetry_equiv_pos_site_id
 _symmetry_equiv_pos_as_xyz
  1  'x, y, z'
loop_
 _atom_site_type_symbol
 _atom_site_label
 _atom_site_symmetry_multiplicity
 _atom_site_fract_x
 _atom_site_fract_y
 _atom_site_fract_z
 _atom_site_occupancy
  Nd  Nd0  1  0.00000000  0.00000000  0.00000000  1
  Mo  Mo1  1  0.57650542  0.43916565  0.76260408  1
  Mo  Mo2  1  0.43916551  0.76260451  0.57650512  1
  Mo  Mo3  1  0.76260441  0.57650518  0.43916555  1
  Mo  Mo4  1  0.42349525  0.56083502  0.23739625  1
  Mo  Mo5  1  0.56083516  0.23739615  0.42349521  1
  Mo  Mo6  1  0.23739626  0.42349549  0.56083478  1
  Se  Se7  1  0.75929239  0.75929239  0.75929213  1
  Se  Se8  1  0.24070828  0.24070828  0.24070820  1
  Se  Se9  1  0.62454060  0.88027595  0.24410265  1
  Se  Se10  1  0.88027623  0.24410238  0.62454060  1
  Se  Se11  1  0.24410257  0.62454108  0.88027557  1
  Se  Se12  1  0.37546007  0.11972472  0.75589768  1
  Se  Se13  1  0.11972444  0.75589829  0.37545973  1
  Se  Se14  1  0.75589810  0.37545959  0.11972476  1
