# generated using pymatgen
data_Be2NbCu
_symmetry_space_group_name_H-M   'P 1'
_cell_length_a   4.09877959
_cell_length_b   4.09877959
_cell_length_c   4.09877959
_cell_angle_alpha   120.02736084
_cell_angle_beta   120.02736084
_cell_angle_gamma   89.95261617
_symmetry_Int_Tables_number   1
_chemical_formula_structural   Be2NbCu
_chemical_formula_sum   'Be2 Nb1 Cu1'
_cell_volume   48.67084556
_cell_formula_units_Z   1
loop_
 _symmetry_equiv_pos_site_id
 _symmetry_equiv_pos_as_xyz
  1  'x, y, z'
loop_
 _atom_site_type_symbol
 _atom_site_label
 _atom_site_symmetry_multiplicity
 _atom_site_fract_x
 _atom_site_fract_y
 _atom_site_fract_z
 _atom_site_occupancy
  Be  Be0  1  0.00000000  0.00000000  0.00000000  1
  Be  Be1  1  0.24999974  0.74999920  0.49999947  1
  Nb  Nb2  1  0.74999920  0.24999974  0.49999947  1
  Cu  Cu3  1  0.49999948  0.49999948  0.00000000  1
