# generated using pymatgen
data_Ho2Zn17
_symmetry_space_group_name_H-M   'P 1'
_cell_length_a   6.76667539
_cell_length_b   6.76667539
_cell_length_c   6.76667539
_cell_angle_alpha   82.67584840
_cell_angle_beta   82.67584840
_cell_angle_gamma   82.67584840
_symmetry_Int_Tables_number   1
_chemical_formula_structural   Ho2Zn17
_chemical_formula_sum   'Ho2 Zn17'
_cell_volume   302.84189259
_cell_formula_units_Z   1
loop_
 _symmetry_equiv_pos_site_id
 _symmetry_equiv_pos_as_xyz
  1  'x, y, z'
loop_
 _atom_site_type_symbol
 _atom_site_label
 _atom_site_symmetry_multiplicity
 _atom_site_fract_x
 _atom_site_fract_y
 _atom_site_fract_z
 _atom_site_occupancy
  Ho  Ho0  1  0.33398868  0.33398868  0.33398896  1
  Ho  Ho1  1  0.66601100  0.66601100  0.66601156  1
  Zn  Zn2  1  0.35501288  0.83747313  0.35501328  1
  Zn  Zn3  1  0.16252655  0.64498680  0.64498724  1
  Zn  Zn4  1  0.64498685  0.64498685  0.16252695  1
  Zn  Zn5  1  0.64498680  0.16252655  0.64498724  1
  Zn  Zn6  1  0.70177144  -0.00000004  0.29822856  1
  Zn  Zn7  1  -0.00000008  0.29822824  0.70177176  1
  Zn  Zn8  1  0.29822831  0.70177147  0.00000021  1
  Zn  Zn9  1  0.29822824  -0.00000008  0.70177176  1
  Zn  Zn10  1  -0.00000004  0.70177144  0.29822856  1
  Zn  Zn11  1  0.70177147  0.29822831  0.00000021  1
  Zn  Zn12  1  -0.00000000  0.49999990  0.00000010  1
  Zn  Zn13  1  0.49999990  -0.00000000  0.00000010  1
  Zn  Zn14  1  -0.00000006  -0.00000006  0.50000005  1
  Zn  Zn15  1  0.89952432  0.89952432  0.89952508  1
  Zn  Zn16  1  0.10047536  0.10047536  0.10047544  1
  Zn  Zn17  1  0.83747313  0.35501288  0.35501328  1
  Zn  Zn18  1  0.35501283  0.35501283  0.83747358  1
