# generated using pymatgen
data_Hf2CuSi4
_symmetry_space_group_name_H-M   'P 1'
_cell_length_a   16.49995500
_cell_length_b   16.49995500
_cell_length_c   3.67278382
_cell_angle_alpha   90.00000000
_cell_angle_beta   90.00000000
_cell_angle_gamma   167.15687047
_symmetry_Int_Tables_number   1
_chemical_formula_structural   Hf2CuSi4
_chemical_formula_sum   'Hf4 Cu2 Si8'
_cell_volume   222.26246198
_cell_formula_units_Z   2
loop_
 _symmetry_equiv_pos_site_id
 _symmetry_equiv_pos_as_xyz
  1  'x, y, z'
loop_
 _atom_site_type_symbol
 _atom_site_label
 _atom_site_symmetry_multiplicity
 _atom_site_fract_x
 _atom_site_fract_y
 _atom_site_fract_z
 _atom_site_occupancy
  Hf  Hf0  1  0.95285381  0.04714417  0.24999974  1
  Hf  Hf1  1  0.04714417  0.95285381  0.74999922  1
  Hf  Hf2  1  0.67609633  0.32390166  0.24999974  1
  Hf  Hf3  1  0.32390166  0.67609633  0.74999922  1
  Cu  Cu4  1  0.25006511  0.74993287  0.24999974  1
  Cu  Cu5  1  0.74993287  0.25006511  0.74999922  1
  Si  Si6  1  0.52432357  0.47567441  0.24999974  1
  Si  Si7  1  0.47567441  0.52432357  0.74999922  1
  Si  Si8  1  0.38785737  0.61214061  0.24999974  1
  Si  Si9  1  0.61214061  0.38785737  0.74999922  1
  Si  Si10  1  0.11239150  0.88760649  0.24999974  1
  Si  Si11  1  0.88760649  0.11239150  0.74999922  1
  Si  Si12  1  0.79766004  0.20233794  0.24999974  1
  Si  Si13  1  0.20233794  0.79766004  0.74999922  1
