# generated using pymatgen
data_LaNiO3
_symmetry_space_group_name_H-M   'P 1'
_cell_length_a   5.38368293
_cell_length_b   5.38368293
_cell_length_c   5.38368293
_cell_angle_alpha   61.21509428
_cell_angle_beta   61.21509428
_cell_angle_gamma   61.21509428
_symmetry_Int_Tables_number   1
_chemical_formula_structural   LaNiO3
_chemical_formula_sum   'La2 Ni2 O6'
_cell_volume   113.35306816
_cell_formula_units_Z   2
loop_
 _symmetry_equiv_pos_site_id
 _symmetry_equiv_pos_as_xyz
  1  'x, y, z'
loop_
 _atom_site_type_symbol
 _atom_site_label
 _atom_site_symmetry_multiplicity
 _atom_site_fract_x
 _atom_site_fract_y
 _atom_site_fract_z
 _atom_site_occupancy
  La  La0  1  0.74999965  0.74999965  0.74999978  1
  La  La1  1  0.24999988  0.24999988  0.24999993  1
  Ni  Ni2  1  0.00000000  0.00000000  0.00000000  1
  Ni  Ni3  1  0.49999976  0.49999976  0.49999985  1
  O  O4  1  0.19677968  0.30322052  0.74999958  1
  O  O5  1  0.30321982  0.74999977  0.19677969  1
  O  O6  1  0.74999991  0.19677912  0.30322035  1
  O  O7  1  0.80321984  0.69677901  0.25000012  1
  O  O8  1  0.69677971  0.24999975  0.80322001  1
  O  O9  1  0.24999962  0.80322041  0.69677935  1
