# generated using pymatgen
data_TePdI
_symmetry_space_group_name_H-M   'P 1'
_cell_length_a   7.94749653
_cell_length_b   7.94749653
_cell_length_c   5.70686969
_cell_angle_alpha   90.00000000
_cell_angle_beta   90.00000000
_cell_angle_gamma   90.00000000
_symmetry_Int_Tables_number   1
_chemical_formula_structural   TePdI
_chemical_formula_sum   'Te4 Pd4 I4'
_cell_volume   360.46130405
_cell_formula_units_Z   4
loop_
 _symmetry_equiv_pos_site_id
 _symmetry_equiv_pos_as_xyz
  1  'x, y, z'
loop_
 _atom_site_type_symbol
 _atom_site_label
 _atom_site_symmetry_multiplicity
 _atom_site_fract_x
 _atom_site_fract_y
 _atom_site_fract_z
 _atom_site_occupancy
  Te  Te0  1  0.21985000  0.00000000  0.00000000  1
  Te  Te1  1  0.78015044  0.00000000  0.00000000  1
  Te  Te2  1  0.00000000  0.21985000  0.50000003  1
  Te  Te3  1  0.00000000  0.78015044  0.50000003  1
  Pd  Pd4  1  0.00000000  0.25038672  0.00000000  1
  Pd  Pd5  1  0.00000000  0.74961372  0.00000000  1
  Pd  Pd6  1  0.74961372  0.00000000  0.50000003  1
  Pd  Pd7  1  0.25038672  0.00000000  0.50000003  1
  I  I8  1  0.24240876  0.50000022  0.00000000  1
  I  I9  1  0.75759168  0.50000022  0.00000000  1
  I  I10  1  0.50000022  0.24240876  0.50000003  1
  I  I11  1  0.50000022  0.75759168  0.50000003  1
