# generated using pymatgen
data_BeFe2Se
_symmetry_space_group_name_H-M   'P 1'
_cell_length_a   4.57981080
_cell_length_b   4.57981080
_cell_length_c   4.57981080
_cell_angle_alpha   133.98651261
_cell_angle_beta   133.98651261
_cell_angle_gamma   67.10907512
_symmetry_Int_Tables_number   1
_chemical_formula_structural   BeFe2Se
_chemical_formula_sum   'Be1 Fe2 Se1'
_cell_volume   48.91388092
_cell_formula_units_Z   1
loop_
 _symmetry_equiv_pos_site_id
 _symmetry_equiv_pos_as_xyz
  1  'x, y, z'
loop_
 _atom_site_type_symbol
 _atom_site_label
 _atom_site_symmetry_multiplicity
 _atom_site_fract_x
 _atom_site_fract_y
 _atom_site_fract_z
 _atom_site_occupancy
  Be  Be0  1  0.74999967  0.24999990  0.49999977  1
  Fe  Fe1  1  0.00000000  0.00000000  0.00000000  1
  Fe  Fe2  1  0.49999981  0.49999981  0.00000000  1
  Se  Se3  1  0.24999990  0.74999967  0.49999977  1
