# generated using pymatgen
data_HoMg2
_symmetry_space_group_name_H-M   'P 1'
_cell_length_a   5.98779363
_cell_length_b   5.98798354
_cell_length_c   9.66576674
_cell_angle_alpha   90.00000000
_cell_angle_beta   90.00000000
_cell_angle_gamma   119.99895088
_symmetry_Int_Tables_number   1
_chemical_formula_structural   HoMg2
_chemical_formula_sum   'Ho4 Mg8'
_cell_volume   300.13659774
_cell_formula_units_Z   4
loop_
 _symmetry_equiv_pos_site_id
 _symmetry_equiv_pos_as_xyz
  1  'x, y, z'
loop_
 _atom_site_type_symbol
 _atom_site_label
 _atom_site_symmetry_multiplicity
 _atom_site_fract_x
 _atom_site_fract_y
 _atom_site_fract_z
 _atom_site_occupancy
  Ho  Ho0  1  0.66666844  0.33333651  0.56450727  1
  Ho  Ho1  1  0.33333260  0.66666460  0.06450710  1
  Ho  Ho2  1  0.33333260  0.66666460  0.43549307  1
  Ho  Ho3  1  0.66666844  0.33333651  0.93549324  1
  Mg  Mg4  1  0.00000000  0.00000000  0.00000000  1
  Mg  Mg5  1  0.00000000  0.00000000  0.50000017  1
  Mg  Mg6  1  0.34220025  0.17109385  0.25000008  1
  Mg  Mg7  1  0.82889398  0.17109417  0.25000008  1
  Mg  Mg8  1  0.82889270  0.65778473  0.25000008  1
  Mg  Mg9  1  0.65780079  0.82890727  0.75000025  1
  Mg  Mg10  1  0.17110707  0.82890694  0.75000025  1
  Mg  Mg11  1  0.17110835  0.34221638  0.75000025  1
