# generated using pymatgen
data_BaLiBi2
_symmetry_space_group_name_H-M   'P 1'
_cell_length_a   4.28729333
_cell_length_b   4.28729333
_cell_length_c   7.35490395
_cell_angle_alpha   90.00000000
_cell_angle_beta   90.00000000
_cell_angle_gamma   90.00000000
_symmetry_Int_Tables_number   1
_chemical_formula_structural   BaLiBi2
_chemical_formula_sum   'Ba1 Li1 Bi2'
_cell_volume   135.18963677
_cell_formula_units_Z   1
loop_
 _symmetry_equiv_pos_site_id
 _symmetry_equiv_pos_as_xyz
  1  'x, y, z'
loop_
 _atom_site_type_symbol
 _atom_site_label
 _atom_site_symmetry_multiplicity
 _atom_site_fract_x
 _atom_site_fract_y
 _atom_site_fract_z
 _atom_site_occupancy
  Ba  Ba0  1  0.49999961  0.49999961  0.77105519  1
  Li  Li1  1  0.00000000  0.00000000  0.41312162  1
  Bi  Bi2  1  0.00000000  0.00000000  0.03669390  1
  Bi  Bi3  1  0.49999961  0.49999961  0.27912748  1
