# generated using pymatgen
data_NbCr2
_symmetry_space_group_name_H-M   'P 1'
_cell_length_a   4.89611427
_cell_length_b   4.89610814
_cell_length_c   8.04153892
_cell_angle_alpha   90.00000000
_cell_angle_beta   90.00000000
_cell_angle_gamma   120.00004142
_symmetry_Int_Tables_number   1
_chemical_formula_structural   NbCr2
_chemical_formula_sum   'Nb4 Cr8'
_cell_volume   166.94451912
_cell_formula_units_Z   4
loop_
 _symmetry_equiv_pos_site_id
 _symmetry_equiv_pos_as_xyz
  1  'x, y, z'
loop_
 _atom_site_type_symbol
 _atom_site_label
 _atom_site_symmetry_multiplicity
 _atom_site_fract_x
 _atom_site_fract_y
 _atom_site_fract_z
 _atom_site_occupancy
  Nb  Nb0  1  0.66666748  0.33333498  0.05939269  1
  Nb  Nb1  1  0.33333248  0.66666582  0.55939276  1
  Nb  Nb2  1  0.33333248  0.66666582  0.94060744  1
  Nb  Nb3  1  0.66666748  0.33333498  0.44060738  1
  Cr  Cr4  1  0.00000000  0.00000000  0.00000000  1
  Cr  Cr5  1  0.00000000  0.00000000  0.50000007  1
  Cr  Cr6  1  0.66100520  0.83050670  0.25000003  1
  Cr  Cr7  1  0.16950031  0.83050645  0.25000003  1
  Cr  Cr8  1  0.16950198  0.33900440  0.25000003  1
  Cr  Cr9  1  0.33899476  0.16949410  0.75000010  1
  Cr  Cr10  1  0.83049966  0.16949435  0.75000010  1
  Cr  Cr11  1  0.83049798  0.66099640  0.75000010  1
