# generated using pymatgen
data_SiB2Mo5
_symmetry_space_group_name_H-M   'P 1'
_cell_length_a   7.01560755
_cell_length_b   7.01560755
_cell_length_c   7.01560755
_cell_angle_alpha   128.82380024
_cell_angle_beta   128.82380024
_cell_angle_gamma   75.29425224
_symmetry_Int_Tables_number   1
_chemical_formula_structural   SiB2Mo5
_chemical_formula_sum   'Si2 B4 Mo10'
_cell_volume   203.99887101
_cell_formula_units_Z   2
loop_
 _symmetry_equiv_pos_site_id
 _symmetry_equiv_pos_as_xyz
  1  'x, y, z'
loop_
 _atom_site_type_symbol
 _atom_site_label
 _atom_site_symmetry_multiplicity
 _atom_site_fract_x
 _atom_site_fract_y
 _atom_site_fract_z
 _atom_site_occupancy
  Si  Si0  1  0.74999992  0.74999992  0.00000000  1
  Si  Si1  1  0.24999997  0.24999997  0.00000000  1
  B  B2  1  0.37654363  0.87654365  0.25308738  1
  B  B3  1  0.62345633  0.12345632  0.74691265  1
  B  B4  1  0.12345632  0.37654370  0.50000002  1
  B  B5  1  0.87654365  0.62345627  0.50000002  1
  Mo  Mo6  1  0.00000000  0.00000000  0.00000000  1
  Mo  Mo7  1  0.49999995  0.49999995  0.00000000  1
  Mo  Mo8  1  0.02342641  0.52342643  0.82568757  1
  Mo  Mo9  1  0.69773882  0.19773880  0.17431246  1
  Mo  Mo10  1  0.19773887  0.02342641  0.50000002  1
  Mo  Mo11  1  0.52342636  0.69773882  0.50000002  1
  Mo  Mo12  1  0.47657360  0.30226115  0.50000002  1
  Mo  Mo13  1  0.80226110  0.97657355  0.50000002  1
  Mo  Mo14  1  0.30226115  0.80226116  0.82568757  1
  Mo  Mo15  1  0.97657355  0.47657354  0.17431246  1
