# generated using pymatgen
data_MgF2
_symmetry_space_group_name_H-M   'P 1'
_cell_length_a   3.06648432
_cell_length_b   4.64356976
_cell_length_c   4.64309125
_cell_angle_alpha   90.00000000
_cell_angle_beta   90.00000000
_cell_angle_gamma   90.00000000
_symmetry_Int_Tables_number   1
_chemical_formula_structural   MgF2
_chemical_formula_sum   'Mg2 F4'
_cell_volume   66.11499077
_cell_formula_units_Z   2
loop_
 _symmetry_equiv_pos_site_id
 _symmetry_equiv_pos_as_xyz
  1  'x, y, z'
loop_
 _atom_site_type_symbol
 _atom_site_label
 _atom_site_symmetry_multiplicity
 _atom_site_fract_x
 _atom_site_fract_y
 _atom_site_fract_z
 _atom_site_occupancy
  Mg  Mg0  1  0.00000000  0.00000000  0.00000000  1
  Mg  Mg1  1  0.49999929  0.50000003  0.49999987  1
  F  F2  1  0.00000000  0.69738830  0.30292063  1
  F  F3  1  0.00000000  0.30261176  0.69707911  1
  F  F4  1  0.49999929  0.19738827  0.19707924  1
  F  F5  1  0.49999929  0.80261178  0.80292049  1
