# generated using pymatgen
data_LaGe
_symmetry_space_group_name_H-M   'P 1'
_cell_length_a   4.16127027
_cell_length_b   6.10535810
_cell_length_c   8.48981666
_cell_angle_alpha   90.00000000
_cell_angle_beta   90.00000000
_cell_angle_gamma   90.00000000
_symmetry_Int_Tables_number   1
_chemical_formula_structural   LaGe
_chemical_formula_sum   'La4 Ge4'
_cell_volume   215.69266528
_cell_formula_units_Z   4
loop_
 _symmetry_equiv_pos_site_id
 _symmetry_equiv_pos_as_xyz
  1  'x, y, z'
loop_
 _atom_site_type_symbol
 _atom_site_label
 _atom_site_symmetry_multiplicity
 _atom_site_fract_x
 _atom_site_fract_y
 _atom_site_fract_z
 _atom_site_occupancy
  La  La0  1  0.74999995  0.88249528  0.18162510  1
  La  La1  1  0.24999998  0.38249512  0.31837510  1
  La  La2  1  0.24999998  0.11750503  0.81837530  1
  La  La3  1  0.74999995  0.61750519  0.68162529  1
  Ge  Ge4  1  0.74999995  0.36500243  0.03739939  1
  Ge  Ge5  1  0.24999998  0.86500259  0.46260080  1
  Ge  Ge6  1  0.24999998  0.63499788  0.96260100  1
  Ge  Ge7  1  0.74999995  0.13499773  0.53739959  1
