# generated using pymatgen
data_ReO3
_symmetry_space_group_name_H-M   'P 1'
_cell_length_a   4.88717898
_cell_length_b   4.88707291
_cell_length_c   4.49717609
_cell_angle_alpha   90.00000000
_cell_angle_beta   90.00000000
_cell_angle_gamma   120.00071796
_symmetry_Int_Tables_number   1
_chemical_formula_structural   ReO3
_chemical_formula_sum   'Re2 O6'
_cell_volume   93.01959527
_cell_formula_units_Z   2
loop_
 _symmetry_equiv_pos_site_id
 _symmetry_equiv_pos_as_xyz
  1  'x, y, z'
loop_
 _atom_site_type_symbol
 _atom_site_label
 _atom_site_symmetry_multiplicity
 _atom_site_fract_x
 _atom_site_fract_y
 _atom_site_fract_z
 _atom_site_occupancy
  Re  Re0  1  0.66666746  0.33333537  0.25000022  1
  Re  Re1  1  0.33333179  0.66666418  0.75000065  1
  O  O2  1  0.00000215  0.62963238  0.99999788  1
  O  O3  1  0.37036951  0.37036701  0.00000298  1
  O  O4  1  0.62962341  0.00000015  0.00000000  1
  O  O5  1  -0.00000286  0.37036693  0.49999745  1
  O  O6  1  0.62962975  0.62963254  0.50000342  1
  O  O7  1  0.37037656  0.00000009  0.50000043  1
