# generated using pymatgen
data_Ba2Fe2Se2OF2
_symmetry_space_group_name_H-M   'P 1'
_cell_length_a   10.35317354
_cell_length_b   10.35317354
_cell_length_c   10.35317354
_cell_angle_alpha   156.73645568
_cell_angle_beta   156.73645568
_cell_angle_gamma   33.13387066
_symmetry_Int_Tables_number   1
_chemical_formula_structural   Ba2Fe2Se2OF2
_chemical_formula_sum   'Ba2 Fe2 Se2 O1 F2'
_cell_volume   172.95724395
_cell_formula_units_Z   1
loop_
 _symmetry_equiv_pos_site_id
 _symmetry_equiv_pos_as_xyz
  1  'x, y, z'
loop_
 _atom_site_type_symbol
 _atom_site_label
 _atom_site_symmetry_multiplicity
 _atom_site_fract_x
 _atom_site_fract_y
 _atom_site_fract_z
 _atom_site_occupancy
  Ba  Ba0  1  0.33139427  0.33139427  0.00000000  1
  Ba  Ba1  1  0.66860622  0.66860622  0.00000000  1
  Fe  Fe2  1  0.50000044  0.00000000  0.50000044  1
  Fe  Fe3  1  0.00000000  0.50000044  0.50000044  1
  Se  Se4  1  0.91146739  0.91146739  0.00000000  1
  Se  Se5  1  0.08853310  0.08853310  0.00000000  1
  O  O6  1  0.50000024  0.50000024  0.00000000  1
  F  F7  1  0.25000012  0.75000056  0.50000044  1
  F  F8  1  0.75000056  0.25000012  0.50000044  1
