# generated using pymatgen
data_VO2
_symmetry_space_group_name_H-M   'P 1'
_cell_length_a   4.57490934
_cell_length_b   5.38704006
_cell_length_c   5.38706610
_cell_angle_alpha   63.75266757
_cell_angle_beta   90.00000000
_cell_angle_gamma   90.00000000
_symmetry_Int_Tables_number   1
_chemical_formula_structural   VO2
_chemical_formula_sum   'V4 O8'
_cell_volume   119.07642760
_cell_formula_units_Z   4
loop_
 _symmetry_equiv_pos_site_id
 _symmetry_equiv_pos_as_xyz
  1  'x, y, z'
loop_
 _atom_site_type_symbol
 _atom_site_label
 _atom_site_symmetry_multiplicity
 _atom_site_fract_x
 _atom_site_fract_y
 _atom_site_fract_z
 _atom_site_occupancy
  V  V0  1  0.00002290  0.75000684  0.25001622  1
  V  V1  1  0.50002297  0.24999153  0.24998458  1
  V  V2  1  -0.00002290  0.24999124  0.74998441  1
  V  V3  1  0.49997717  0.75000655  0.75001605  1
  O  O4  1  0.79950524  0.89973105  0.89973714  1
  O  O5  1  0.29950517  0.10026674  0.60026333  1
  O  O6  1  0.20049490  0.10026703  0.10026350  1
  O  O7  1  0.70049497  0.89973134  0.39973731  1
  O  O8  1  0.29950170  0.60026516  0.10026283  1
  O  O9  1  0.79950178  0.39973321  0.39973797  1
  O  O10  1  0.70049844  0.39973292  0.89973781  1
  O  O11  1  0.20049837  0.60026487  0.60026266  1
