# generated using pymatgen
data_NdNiGe3
_symmetry_space_group_name_H-M   'P 1'
_cell_length_a   11.13348765
_cell_length_b   11.13348765
_cell_length_c   4.18407357
_cell_angle_alpha   90.00000000
_cell_angle_beta   90.00000000
_cell_angle_gamma   158.45186587
_symmetry_Int_Tables_number   1
_chemical_formula_structural   NdNiGe3
_chemical_formula_sum   'Nd2 Ni2 Ge6'
_cell_volume   190.48566371
_cell_formula_units_Z   2
loop_
 _symmetry_equiv_pos_site_id
 _symmetry_equiv_pos_as_xyz
  1  'x, y, z'
loop_
 _atom_site_type_symbol
 _atom_site_label
 _atom_site_symmetry_multiplicity
 _atom_site_fract_x
 _atom_site_fract_y
 _atom_site_fract_z
 _atom_site_occupancy
  Nd  Nd0  1  0.83110091  0.16890034  0.49999957  1
  Nd  Nd1  1  0.16890034  0.83110091  0.49999957  1
  Ni  Ni2  1  0.60891495  0.39108629  0.00000000  1
  Ni  Ni3  1  0.39108629  0.60891495  0.00000000  1
  Ge  Ge4  1  0.71591488  0.28408636  0.00000000  1
  Ge  Ge5  1  0.28408636  0.71591488  0.00000000  1
  Ge  Ge6  1  0.55698616  0.44301508  0.49999957  1
  Ge  Ge7  1  0.44301508  0.55698616  0.49999957  1
  Ge  Ge8  1  0.94298633  0.05701491  0.00000000  1
  Ge  Ge9  1  0.05701491  0.94298633  0.00000000  1
