# generated using pymatgen
data_Er(FeGe)6
_symmetry_space_group_name_H-M   'P 1'
_cell_length_a   5.07966634
_cell_length_b   5.07966634
_cell_length_c   8.03304265
_cell_angle_alpha   90.00000000
_cell_angle_beta   90.00000000
_cell_angle_gamma   120.00063911
_symmetry_Int_Tables_number   1
_chemical_formula_structural   Er(FeGe)6
_chemical_formula_sum   'Er1 Fe6 Ge6'
_cell_volume   179.50571498
_cell_formula_units_Z   1
loop_
 _symmetry_equiv_pos_site_id
 _symmetry_equiv_pos_as_xyz
  1  'x, y, z'
loop_
 _atom_site_type_symbol
 _atom_site_label
 _atom_site_symmetry_multiplicity
 _atom_site_fract_x
 _atom_site_fract_y
 _atom_site_fract_z
 _atom_site_occupancy
  Er  Er0  1  0.00000000  0.00000000  0.00000000  1
  Fe  Fe1  1  0.49999989  0.00000038  0.25051218  1
  Fe  Fe2  1  0.00000038  0.49999989  0.25051218  1
  Fe  Fe3  1  0.50000027  0.50000027  0.25051171  1
  Fe  Fe4  1  0.00000038  0.49999989  0.74948749  1
  Fe  Fe5  1  0.49999989  0.00000038  0.74948749  1
  Fe  Fe6  1  0.50000027  0.50000027  0.74948796  1
  Ge  Ge7  1  0.33333004  0.66667050  0.00000000  1
  Ge  Ge8  1  0.66667050  0.33333004  0.00000000  1
  Ge  Ge9  1  0.33332767  0.66667287  0.49999983  1
  Ge  Ge10  1  0.66667287  0.33332767  0.49999983  1
  Ge  Ge11  1  0.00000000  0.00000000  0.34447874  1
  Ge  Ge12  1  0.00000000  0.00000000  0.65552093  1
