# generated using pymatgen
data_BeNbSb
_symmetry_space_group_name_H-M   'P 1'
_cell_length_a   3.12113541
_cell_length_b   3.12113541
_cell_length_c   6.50838130
_cell_angle_alpha   90.00000000
_cell_angle_beta   90.00000000
_cell_angle_gamma   120.00000827
_symmetry_Int_Tables_number   1
_chemical_formula_structural   BeNbSb
_chemical_formula_sum   'Be1 Nb1 Sb1'
_cell_volume   54.90713768
_cell_formula_units_Z   1
loop_
 _symmetry_equiv_pos_site_id
 _symmetry_equiv_pos_as_xyz
  1  'x, y, z'
loop_
 _atom_site_type_symbol
 _atom_site_label
 _atom_site_symmetry_multiplicity
 _atom_site_fract_x
 _atom_site_fract_y
 _atom_site_fract_z
 _atom_site_occupancy
  Be  Be0  1  0.00000000  0.00000000  0.01165145  1
  Nb  Nb1  1  0.66666763  0.33333396  0.30985988  1
  Sb  Sb2  1  0.33333396  0.66666763  0.67848847  1
