# generated using pymatgen
data_ErCuS2
_symmetry_space_group_name_H-M   'P 1'
_cell_length_a   3.94499286
_cell_length_b   6.26413859
_cell_length_c   13.33144707
_cell_angle_alpha   90.00000000
_cell_angle_beta   90.00000000
_cell_angle_gamma   90.00000000
_symmetry_Int_Tables_number   1
_chemical_formula_structural   ErCuS2
_chemical_formula_sum   'Er4 Cu4 S8'
_cell_volume   329.44648014
_cell_formula_units_Z   4
loop_
 _symmetry_equiv_pos_site_id
 _symmetry_equiv_pos_as_xyz
  1  'x, y, z'
loop_
 _atom_site_type_symbol
 _atom_site_label
 _atom_site_symmetry_multiplicity
 _atom_site_fract_x
 _atom_site_fract_y
 _atom_site_fract_z
 _atom_site_occupancy
  Er  Er0  1  0.74985463  0.25165683  0.86627869  1
  Er  Er1  1  0.24985499  0.24834328  0.13372153  1
  Er  Er2  1  0.75014428  0.74834339  0.36627858  1
  Er  Er3  1  0.25014464  0.75165695  0.63372164  1
  Cu  Cu4  1  0.24951775  0.63019560  0.95258972  1
  Cu  Cu5  1  0.74951739  0.86980474  0.04741050  1
  Cu  Cu6  1  0.25048189  0.36980463  0.45258961  1
  Cu  Cu7  1  0.75048152  0.13019548  0.54741061  1
  S  S8  1  0.24986665  0.48658856  0.79316715  1
  S  S9  1  0.74986629  0.01341155  0.20683307  1
  S  S10  1  0.25013298  0.51341166  0.29316704  1
  S  S11  1  0.75013262  0.98658868  0.70683318  1
  S  S12  1  0.24976321  0.00803928  0.95959161  1
  S  S13  1  0.74976285  0.49196083  0.04040861  1
  S  S14  1  0.25023642  0.99196094  0.45959150  1
  S  S15  1  0.75023606  0.50803939  0.54040872  1
