# generated using pymatgen
data_Be2ZnRu
_symmetry_space_group_name_H-M   'P 1'
_cell_length_a   2.90382972
_cell_length_b   2.90382972
_cell_length_c   5.37243476
_cell_angle_alpha   90.00000000
_cell_angle_beta   90.00000000
_cell_angle_gamma   90.00000000
_symmetry_Int_Tables_number   1
_chemical_formula_structural   Be2ZnRu
_chemical_formula_sum   'Be2 Zn1 Ru1'
_cell_volume   45.30158976
_cell_formula_units_Z   1
loop_
 _symmetry_equiv_pos_site_id
 _symmetry_equiv_pos_as_xyz
  1  'x, y, z'
loop_
 _atom_site_type_symbol
 _atom_site_label
 _atom_site_symmetry_multiplicity
 _atom_site_fract_x
 _atom_site_fract_y
 _atom_site_fract_z
 _atom_site_occupancy
  Be  Be0  1  0.00000000  0.00000000  0.02931976  1
  Be  Be1  1  0.50000005  0.50000005  0.25023136  1
  Zn  Zn2  1  0.50000005  0.50000005  0.76517309  1
  Ru  Ru3  1  0.00000000  0.00000000  0.45527546  1
