# generated using pymatgen
data_LaCoGe2
_symmetry_space_group_name_H-M   'P 1'
_cell_length_a   8.69937321
_cell_length_b   8.69937321
_cell_length_c   4.27376793
_cell_angle_alpha   90.00000000
_cell_angle_beta   90.00000000
_cell_angle_gamma   151.25159267
_symmetry_Int_Tables_number   1
_chemical_formula_structural   LaCoGe2
_chemical_formula_sum   'La2 Co2 Ge4'
_cell_volume   155.56066505
_cell_formula_units_Z   2
loop_
 _symmetry_equiv_pos_site_id
 _symmetry_equiv_pos_as_xyz
  1  'x, y, z'
loop_
 _atom_site_type_symbol
 _atom_site_label
 _atom_site_symmetry_multiplicity
 _atom_site_fract_x
 _atom_site_fract_y
 _atom_site_fract_z
 _atom_site_occupancy
  La  La0  1  0.10890113  0.89109783  0.75000036  1
  La  La1  1  0.89109783  0.10890113  0.25000012  1
  Co  Co2  1  0.31691956  0.68307940  0.75000036  1
  Co  Co3  1  0.68307940  0.31691956  0.25000012  1
  Ge  Ge4  1  0.45434095  0.54565801  0.75000036  1
  Ge  Ge5  1  0.54565801  0.45434095  0.25000012  1
  Ge  Ge6  1  0.74978961  0.25020935  0.75000036  1
  Ge  Ge7  1  0.25020935  0.74978961  0.25000012  1
