# generated using pymatgen
data_BeCrNi
_symmetry_space_group_name_H-M   'P 1'
_cell_length_a   2.45518306
_cell_length_b   2.45518306
_cell_length_c   5.92358561
_cell_angle_alpha   90.00000000
_cell_angle_beta   90.00000000
_cell_angle_gamma   120.00000801
_symmetry_Int_Tables_number   1
_chemical_formula_structural   BeCrNi
_chemical_formula_sum   'Be1 Cr1 Ni1'
_cell_volume   30.92309995
_cell_formula_units_Z   1
loop_
 _symmetry_equiv_pos_site_id
 _symmetry_equiv_pos_as_xyz
  1  'x, y, z'
loop_
 _atom_site_type_symbol
 _atom_site_label
 _atom_site_symmetry_multiplicity
 _atom_site_fract_x
 _atom_site_fract_y
 _atom_site_fract_z
 _atom_site_occupancy
  Be  Be0  1  0.00000000  0.00000000  0.01028833  1
  Cr  Cr1  1  0.33333251  0.66666636  0.67020283  1
  Ni  Ni2  1  0.66666636  0.33333251  0.31950959  1
