# generated using pymatgen
data_TiBe2Re
_symmetry_space_group_name_H-M   'P 1'
_cell_length_a   4.34493104
_cell_length_b   4.34493104
_cell_length_c   4.34493104
_cell_angle_alpha   129.49586498
_cell_angle_beta   129.49586498
_cell_angle_gamma   74.21400378
_symmetry_Int_Tables_number   1
_chemical_formula_structural   TiBe2Re
_chemical_formula_sum   'Ti1 Be2 Re1'
_cell_volume   47.62000220
_cell_formula_units_Z   1
loop_
 _symmetry_equiv_pos_site_id
 _symmetry_equiv_pos_as_xyz
  1  'x, y, z'
loop_
 _atom_site_type_symbol
 _atom_site_label
 _atom_site_symmetry_multiplicity
 _atom_site_fract_x
 _atom_site_fract_y
 _atom_site_fract_z
 _atom_site_occupancy
  Ti  Ti0  1  0.74999927  0.25000023  0.49999904  1
  Be  Be1  1  0.00000000  0.00000000  0.00000000  1
  Be  Be2  1  0.50000045  0.50000045  0.00000000  1
  Re  Re3  1  0.25000023  0.74999927  0.49999904  1
