# generated using pymatgen
data_Ba2InO3F
_symmetry_space_group_name_H-M   'P 1'
_cell_length_a   4.19854718
_cell_length_b   4.19854718
_cell_length_c   14.12475563
_cell_angle_alpha   90.00000000
_cell_angle_beta   90.00000000
_cell_angle_gamma   90.00000000
_symmetry_Int_Tables_number   1
_chemical_formula_structural   Ba2InO3F
_chemical_formula_sum   'Ba4 In2 O6 F2'
_cell_volume   248.98834456
_cell_formula_units_Z   2
loop_
 _symmetry_equiv_pos_site_id
 _symmetry_equiv_pos_as_xyz
  1  'x, y, z'
loop_
 _atom_site_type_symbol
 _atom_site_label
 _atom_site_symmetry_multiplicity
 _atom_site_fract_x
 _atom_site_fract_y
 _atom_site_fract_z
 _atom_site_occupancy
  Ba  Ba0  1  0.25000017  0.25000017  0.38074748  1
  Ba  Ba1  1  0.75000050  0.75000050  0.61925283  1
  Ba  Ba2  1  0.25000017  0.25000017  0.10244817  1
  Ba  Ba3  1  0.75000050  0.75000050  0.89755214  1
  In  In4  1  0.75000050  0.75000050  0.23229163  1
  In  In5  1  0.25000017  0.25000017  0.76770868  1
  O  O6  1  0.75000050  0.25000017  0.25900039  1
  O  O7  1  0.25000017  0.75000050  0.25900039  1
  O  O8  1  0.25000017  0.75000050  0.74099992  1
  O  O9  1  0.75000050  0.25000017  0.74099992  1
  O  O10  1  0.75000050  0.75000050  0.08143106  1
  O  O11  1  0.25000017  0.25000017  0.91856925  1
  F  F12  1  0.75000050  0.75000050  0.42746682  1
  F  F13  1  0.25000017  0.25000017  0.57253349  1
