# generated using pymatgen
data_LiTaBe
_symmetry_space_group_name_H-M   'P 1'
_cell_length_a   2.74408921
_cell_length_b   2.74408921
_cell_length_c   6.97133784
_cell_angle_alpha   90.00000000
_cell_angle_beta   90.00000000
_cell_angle_gamma   119.99998987
_symmetry_Int_Tables_number   1
_chemical_formula_structural   LiTaBe
_chemical_formula_sum   'Li1 Ta1 Be1'
_cell_volume   45.46144732
_cell_formula_units_Z   1
loop_
 _symmetry_equiv_pos_site_id
 _symmetry_equiv_pos_as_xyz
  1  'x, y, z'
loop_
 _atom_site_type_symbol
 _atom_site_label
 _atom_site_symmetry_multiplicity
 _atom_site_fract_x
 _atom_site_fract_y
 _atom_site_fract_z
 _atom_site_occupancy
  Li  Li0  1  0.66666519  0.33333130  0.68774883  1
  Ta  Ta1  1  0.33333130  0.66666519  0.31090911  1
  Be  Be2  1  0.00000000  0.00000000  0.00134236  1
