# generated using pymatgen
data_NdAsS
_symmetry_space_group_name_H-M   'P 1'
_cell_length_a   17.52846048
_cell_length_b   3.98564596
_cell_length_c   3.93219085
_cell_angle_alpha   89.99894963
_cell_angle_beta   90.00000000
_cell_angle_gamma   90.00000000
_symmetry_Int_Tables_number   1
_chemical_formula_structural   NdAsS
_chemical_formula_sum   'Nd4 As4 S4'
_cell_volume   274.71165171
_cell_formula_units_Z   4
loop_
 _symmetry_equiv_pos_site_id
 _symmetry_equiv_pos_as_xyz
  1  'x, y, z'
loop_
 _atom_site_type_symbol
 _atom_site_label
 _atom_site_symmetry_multiplicity
 _atom_site_fract_x
 _atom_site_fract_y
 _atom_site_fract_z
 _atom_site_occupancy
  Nd  Nd0  1  0.35411301  0.73281401  0.25000148  1
  Nd  Nd1  1  0.85411299  0.76718637  0.25000078  1
  Nd  Nd2  1  0.64588697  0.26718687  0.75000085  1
  Nd  Nd3  1  0.14588698  0.23281452  0.75000155  1
  As  As4  1  0.00173962  0.71117014  0.74998487  1
  As  As5  1  0.50173961  0.78883118  0.75001862  1
  As  As6  1  0.99826035  0.28883074  0.25001746  1
  As  As7  1  0.49826037  0.21116970  0.24998371  1
  S  S8  1  0.18665979  0.73531428  0.24999835  1
  S  S9  1  0.68665978  0.76468610  0.25000390  1
  S  S10  1  0.81334018  0.26468660  0.75000398  1
  S  S11  1  0.31334019  0.23531478  0.74999843  1
