# generated using pymatgen
data_In5Bi3
_symmetry_space_group_name_H-M   'P 1'
_cell_length_a   8.92692527
_cell_length_b   8.92692527
_cell_length_c   8.92692527
_cell_angle_alpha   123.95235815
_cell_angle_beta   123.95235815
_cell_angle_gamma   83.28061689
_symmetry_Int_Tables_number   1
_chemical_formula_structural   In5Bi3
_chemical_formula_sum   'In10 Bi6'
_cell_volume   469.43556698
_cell_formula_units_Z   2
loop_
 _symmetry_equiv_pos_site_id
 _symmetry_equiv_pos_as_xyz
  1  'x, y, z'
loop_
 _atom_site_type_symbol
 _atom_site_label
 _atom_site_symmetry_multiplicity
 _atom_site_fract_x
 _atom_site_fract_y
 _atom_site_fract_z
 _atom_site_occupancy
  In  In0  1  0.00000000  0.00000000  0.00000000  1
  In  In1  1  0.50000027  0.50000027  0.00000000  1
  In  In2  1  0.98203634  0.48203684  0.79684659  1
  In  In3  1  0.68518925  0.18518975  0.20315241  1
  In  In4  1  0.18518975  0.98203634  0.49999950  1
  In  In5  1  0.48203684  0.68518925  0.49999950  1
  In  In6  1  0.51796294  0.31481052  0.49999950  1
  In  In7  1  0.81481003  0.01796343  0.49999950  1
  In  In8  1  0.31481052  0.81481003  0.79684659  1
  In  In9  1  0.01796343  0.51796294  0.20315241  1
  Bi  Bi10  1  0.75000040  0.75000040  0.00000000  1
  Bi  Bi11  1  0.25000013  0.25000013  0.00000000  1
  Bi  Bi12  1  0.35315673  0.85315623  0.20631242  1
  Bi  Bi13  1  0.64684304  0.14684354  0.79368658  1
  Bi  Bi14  1  0.14684354  0.35315596  0.49999950  1
  Bi  Bi15  1  0.85315623  0.64684381  0.49999950  1
