# generated using pymatgen
data_BePIr
_symmetry_space_group_name_H-M   'P 1'
_cell_length_a   5.79863254
_cell_length_b   5.79863254
_cell_length_c   5.79863254
_cell_angle_alpha   151.95365405
_cell_angle_beta   151.95365405
_cell_angle_gamma   40.08098678
_symmetry_Int_Tables_number   1
_chemical_formula_structural   BePIr
_chemical_formula_sum   'Be1 P1 Ir1'
_cell_volume   43.01984577
_cell_formula_units_Z   1
loop_
 _symmetry_equiv_pos_site_id
 _symmetry_equiv_pos_as_xyz
  1  'x, y, z'
loop_
 _atom_site_type_symbol
 _atom_site_label
 _atom_site_symmetry_multiplicity
 _atom_site_fract_x
 _atom_site_fract_y
 _atom_site_fract_z
 _atom_site_occupancy
  Be  Be0  1  0.03674672  0.03674672  0.00000000  1
  P  P1  1  0.30451073  0.30451073  0.00000000  1
  Ir  Ir2  1  0.65874269  0.65874269  0.00000000  1
