# generated using pymatgen
data_TbB2Os
_symmetry_space_group_name_H-M   'P 1'
_cell_length_a   5.32698144
_cell_length_b   5.93180032
_cell_length_c   6.41384998
_cell_angle_alpha   90.00000000
_cell_angle_beta   90.00000000
_cell_angle_gamma   90.00000000
_symmetry_Int_Tables_number   1
_chemical_formula_structural   TbB2Os
_chemical_formula_sum   'Tb4 B8 Os4'
_cell_volume   202.66861708
_cell_formula_units_Z   4
loop_
 _symmetry_equiv_pos_site_id
 _symmetry_equiv_pos_as_xyz
  1  'x, y, z'
loop_
 _atom_site_type_symbol
 _atom_site_label
 _atom_site_symmetry_multiplicity
 _atom_site_fract_x
 _atom_site_fract_y
 _atom_site_fract_z
 _atom_site_occupancy
  Tb  Tb0  1  0.24999993  0.00945041  0.33681176  1
  Tb  Tb1  1  0.74999980  0.49054957  0.83681176  1
  Tb  Tb2  1  0.74999980  0.99054954  0.66318824  1
  Tb  Tb3  1  0.24999993  0.50945038  0.16318824  1
  B  B4  1  0.08359418  0.36497144  0.53907618  1
  B  B5  1  0.91640555  0.13502854  0.03907618  1
  B  B6  1  0.58359404  0.63502851  0.46092382  1
  B  B7  1  0.41640569  0.86497141  0.96092382  1
  B  B8  1  0.91640555  0.63502851  0.46092382  1
  B  B9  1  0.08359418  0.86497141  0.96092382  1
  B  B10  1  0.41640569  0.36497144  0.53907618  1
  B  B11  1  0.58359404  0.13502854  0.03907618  1
  Os  Os12  1  0.24999993  0.17925096  0.81890166  1
  Os  Os13  1  0.74999980  0.32074901  0.31890166  1
  Os  Os14  1  0.74999980  0.82074898  0.18109834  1
  Os  Os15  1  0.24999993  0.67925094  0.68109835  1
