# generated using pymatgen
data_Nd(GePt)2
_symmetry_space_group_name_H-M   'P 1'
_cell_length_a   4.41846379
_cell_length_b   4.42977598
_cell_length_c   9.95088752
_cell_angle_alpha   89.60815215
_cell_angle_beta   90.00000000
_cell_angle_gamma   90.00000000
_symmetry_Int_Tables_number   1
_chemical_formula_structural   Nd(GePt)2
_chemical_formula_sum   'Nd2 Ge4 Pt4'
_cell_volume   194.76222394
_cell_formula_units_Z   2
loop_
 _symmetry_equiv_pos_site_id
 _symmetry_equiv_pos_as_xyz
  1  'x, y, z'
loop_
 _atom_site_type_symbol
 _atom_site_label
 _atom_site_symmetry_multiplicity
 _atom_site_fract_x
 _atom_site_fract_y
 _atom_site_fract_z
 _atom_site_occupancy
  Nd  Nd0  1  0.24559121  0.74813162  0.74726679  1
  Nd  Nd1  1  0.74559078  0.25186793  0.25273279  1
  Ge  Ge2  1  0.24570206  0.76882788  0.12795219  1
  Ge  Ge3  1  0.74570163  0.23117166  0.87204739  1
  Ge  Ge4  1  0.24550195  0.25081651  0.49975961  1
  Ge  Ge5  1  0.74550152  0.74918304  0.50023997  1
  Pt  Pt6  1  0.24550618  0.75233541  0.37567506  1
  Pt  Pt7  1  0.74550575  0.24766414  0.62432451  1
  Pt  Pt8  1  0.24569755  0.27222295  0.99926040  1
  Pt  Pt9  1  0.74569712  0.72777660  0.00073917  1
