# generated using pymatgen
data_ScGePt
_symmetry_space_group_name_H-M   'P 1'
_cell_length_a   4.24408680
_cell_length_b   6.63094604
_cell_length_c   7.50822838
_cell_angle_alpha   90.00000000
_cell_angle_beta   90.00000000
_cell_angle_gamma   90.00000000
_symmetry_Int_Tables_number   1
_chemical_formula_structural   ScGePt
_chemical_formula_sum   'Sc4 Ge4 Pt4'
_cell_volume   211.29889480
_cell_formula_units_Z   4
loop_
 _symmetry_equiv_pos_site_id
 _symmetry_equiv_pos_as_xyz
  1  'x, y, z'
loop_
 _atom_site_type_symbol
 _atom_site_label
 _atom_site_symmetry_multiplicity
 _atom_site_fract_x
 _atom_site_fract_y
 _atom_site_fract_z
 _atom_site_occupancy
  Sc  Sc0  1  0.25000019  0.99982822  0.29682678  1
  Sc  Sc1  1  0.75000057  0.50017267  0.79682688  1
  Sc  Sc2  1  0.75000057  0.00017237  0.70317344  1
  Sc  Sc3  1  0.25000019  0.49982792  0.20317333  1
  Ge  Ge4  1  0.25000019  0.30332217  0.59305589  1
  Ge  Ge5  1  0.75000057  0.19667813  0.09305578  1
  Ge  Ge6  1  0.75000057  0.69667843  0.40694433  1
  Ge  Ge7  1  0.25000019  0.80332247  0.90694443  1
  Pt  Pt8  1  0.25000019  0.20711228  0.91689102  1
  Pt  Pt9  1  0.75000057  0.29288802  0.41689092  1
  Pt  Pt10  1  0.75000057  0.79288832  0.08310919  1
  Pt  Pt11  1  0.25000019  0.70711257  0.58310930  1
