# generated using pymatgen
data_PuAl4
_symmetry_space_group_name_H-M   'P 1'
_cell_length_a   7.89444339
_cell_length_b   7.89444339
_cell_length_c   7.89444339
_cell_angle_alpha   147.57984649
_cell_angle_beta   133.44829852
_cell_angle_gamma   57.87019715
_symmetry_Int_Tables_number   1
_chemical_formula_structural   PuAl4
_chemical_formula_sum   'Pu2 Al8'
_cell_volume   189.99425386
_cell_formula_units_Z   2
loop_
 _symmetry_equiv_pos_site_id
 _symmetry_equiv_pos_as_xyz
  1  'x, y, z'
loop_
 _atom_site_type_symbol
 _atom_site_label
 _atom_site_symmetry_multiplicity
 _atom_site_fract_x
 _atom_site_fract_y
 _atom_site_fract_z
 _atom_site_occupancy
  Pu  Pu0  1  0.36163454  0.11163416  0.25000038  1
  Pu  Pu1  1  0.63836646  0.88836546  0.74999976  1
  Al  Al2  1  0.50000024  0.50000024  0.00000000  1
  Al  Al3  1  0.00000000  0.49999938  0.49999938  1
  Al  Al4  1  0.13844924  0.88844899  0.24999900  1
  Al  Al5  1  0.86155176  0.11155063  0.75000113  1
  Al  Al6  1  0.27697566  0.30167143  0.97530299  1
  Al  Al7  1  0.82637020  0.30167229  0.52469790  1
  Al  Al8  1  0.17363080  0.69832732  0.47530223  1
  Al  Al9  1  0.72302534  0.69832819  0.02469715  1
