# generated using pymatgen
data_YbGeRh
_symmetry_space_group_name_H-M   'P 1'
_cell_length_a   4.38896161
_cell_length_b   7.13861932
_cell_length_c   7.05514777
_cell_angle_alpha   90.00000000
_cell_angle_beta   90.00000000
_cell_angle_gamma   90.00000000
_symmetry_Int_Tables_number   1
_chemical_formula_structural   YbGeRh
_chemical_formula_sum   'Yb4 Ge4 Rh4'
_cell_volume   221.04572437
_cell_formula_units_Z   4
loop_
 _symmetry_equiv_pos_site_id
 _symmetry_equiv_pos_as_xyz
  1  'x, y, z'
loop_
 _atom_site_type_symbol
 _atom_site_label
 _atom_site_symmetry_multiplicity
 _atom_site_fract_x
 _atom_site_fract_y
 _atom_site_fract_z
 _atom_site_occupancy
  Yb  Yb0  1  0.24999991  0.98966079  0.31248886  1
  Yb  Yb1  1  0.74999973  0.51033936  0.81248901  1
  Yb  Yb2  1  0.74999973  0.01033931  0.68751146  1
  Yb  Yb3  1  0.24999991  0.48966074  0.18751130  1
  Ge  Ge4  1  0.24999991  0.29951170  0.60589641  1
  Ge  Ge5  1  0.74999973  0.20048835  0.10589625  1
  Ge  Ge6  1  0.74999973  0.70048840  0.39410391  1
  Ge  Ge7  1  0.24999991  0.79951175  0.89410407  1
  Rh  Rh8  1  0.24999991  0.14891573  0.92947876  1
  Rh  Rh9  1  0.74999973  0.35108432  0.42947860  1
  Rh  Rh10  1  0.74999973  0.85108437  0.07052156  1
  Rh  Rh11  1  0.24999991  0.64891577  0.57052172  1
