# generated using pymatgen
data_CdCu2SiSe4
_symmetry_space_group_name_H-M   'P 1'
_cell_length_a   6.63596020
_cell_length_b   6.86203645
_cell_length_c   8.08719871
_cell_angle_alpha   90.00000000
_cell_angle_beta   90.00000000
_cell_angle_gamma   90.00000000
_symmetry_Int_Tables_number   1
_chemical_formula_structural   CdCu2SiSe4
_chemical_formula_sum   'Cd2 Cu4 Si2 Se8'
_cell_volume   368.26030382
_cell_formula_units_Z   2
loop_
 _symmetry_equiv_pos_site_id
 _symmetry_equiv_pos_as_xyz
  1  'x, y, z'
loop_
 _atom_site_type_symbol
 _atom_site_label
 _atom_site_symmetry_multiplicity
 _atom_site_fract_x
 _atom_site_fract_y
 _atom_site_fract_z
 _atom_site_occupancy
  Cd  Cd0  1  0.87497959  0.65056337  0.00000000  1
  Cd  Cd1  1  0.37497961  0.34943715  0.50000008  1
  Cu  Cu2  1  0.36834395  0.82317192  0.24780633  1
  Cu  Cu3  1  0.86834393  0.17682860  0.25219375  1
  Cu  Cu4  1  0.86834393  0.17682860  0.74780641  1
  Cu  Cu5  1  0.36834395  0.82317192  0.75219383  1
  Si  Si6  1  0.37713822  0.32235578  0.00000000  1
  Si  Si7  1  0.87713821  0.67764474  0.50000008  1
  Se  Se8  1  0.47076020  0.64914304  0.00000000  1
  Se  Se9  1  0.97076019  0.35085747  0.50000008  1
  Se  Se10  1  0.02662082  0.29110093  0.00000000  1
  Se  Se11  1  0.52662081  0.70889959  0.50000008  1
  Se  Se12  1  0.00440660  0.84390030  0.27163154  1
  Se  Se13  1  0.50440658  0.15610022  0.22836854  1
  Se  Se14  1  0.50440658  0.15610022  0.77163162  1
  Se  Se15  1  0.00440660  0.84390030  0.72836862  1
