# generated using pymatgen
data_Ce2MgNi2
_symmetry_space_group_name_H-M   'P 1'
_cell_length_a   7.49044344
_cell_length_b   7.49044344
_cell_length_c   3.64709624
_cell_angle_alpha   90.00000000
_cell_angle_beta   90.00000000
_cell_angle_gamma   90.00000000
_symmetry_Int_Tables_number   1
_chemical_formula_structural   Ce2MgNi2
_chemical_formula_sum   'Ce4 Mg2 Ni4'
_cell_volume   204.62669074
_cell_formula_units_Z   2
loop_
 _symmetry_equiv_pos_site_id
 _symmetry_equiv_pos_as_xyz
  1  'x, y, z'
loop_
 _atom_site_type_symbol
 _atom_site_label
 _atom_site_symmetry_multiplicity
 _atom_site_fract_x
 _atom_site_fract_y
 _atom_site_fract_z
 _atom_site_occupancy
  Ce  Ce0  1  0.16871811  0.66871788  0.50000052  1
  Ce  Ce1  1  0.83128143  0.33128166  0.50000052  1
  Ce  Ce2  1  0.33128166  0.16871811  0.50000052  1
  Ce  Ce3  1  0.66871788  0.83128143  0.50000052  1
  Mg  Mg4  1  0.00000000  0.00000000  0.00000000  1
  Mg  Mg5  1  0.49999977  0.49999977  0.00000000  1
  Ni  Ni6  1  0.36997880  0.86997857  0.00000000  1
  Ni  Ni7  1  0.63002075  0.13002097  0.00000000  1
  Ni  Ni8  1  0.13002097  0.36997880  0.00000000  1
  Ni  Ni9  1  0.86997857  0.63002075  0.00000000  1
