# generated using pymatgen
data_Ho3Os
_symmetry_space_group_name_H-M   'P 1'
_cell_length_a   6.25456494
_cell_length_b   7.33867503
_cell_length_c   8.95287152
_cell_angle_alpha   90.00000000
_cell_angle_beta   90.00000000
_cell_angle_gamma   90.00000000
_symmetry_Int_Tables_number   1
_chemical_formula_structural   Ho3Os
_chemical_formula_sum   'Ho12 Os4'
_cell_volume   410.93876816
_cell_formula_units_Z   4
loop_
 _symmetry_equiv_pos_site_id
 _symmetry_equiv_pos_as_xyz
  1  'x, y, z'
loop_
 _atom_site_type_symbol
 _atom_site_label
 _atom_site_symmetry_multiplicity
 _atom_site_fract_x
 _atom_site_fract_y
 _atom_site_fract_z
 _atom_site_occupancy
  Ho  Ho0  1  0.83405445  0.17614383  0.93821562  1
  Ho  Ho1  1  0.33405485  0.32385651  0.06178421  1
  Ho  Ho2  1  0.16594476  0.82385685  0.43821571  1
  Ho  Ho3  1  0.66594436  0.67614417  0.56178412  1
  Ho  Ho4  1  0.16594476  0.82385685  0.06178421  1
  Ho  Ho5  1  0.66594436  0.67614417  0.93821562  1
  Ho  Ho6  1  0.83405445  0.17614383  0.56178412  1
  Ho  Ho7  1  0.33405485  0.32385651  0.43821571  1
  Ho  Ho8  1  0.37307355  0.03657547  0.74999987  1
  Ho  Ho9  1  0.87307316  0.46342487  0.24999996  1
  Ho  Ho10  1  0.62692566  0.96342521  0.24999996  1
  Ho  Ho11  1  0.12692605  0.53657581  0.74999987  1
  Os  Os12  1  0.54078779  0.38288195  0.74999987  1
  Os  Os13  1  0.04078818  0.11711839  0.24999996  1
  Os  Os14  1  0.45921142  0.61711873  0.24999996  1
  Os  Os15  1  0.95921103  0.88288228  0.74999987  1
