# generated using pymatgen
data_NaBe2Te
_symmetry_space_group_name_H-M   'P 1'
_cell_length_a   5.28989417
_cell_length_b   5.28989417
_cell_length_c   5.28989417
_cell_angle_alpha   134.89501777
_cell_angle_beta   134.89501777
_cell_angle_gamma   65.69336198
_symmetry_Int_Tables_number   1
_chemical_formula_structural   NaBe2Te
_chemical_formula_sum   'Na1 Be2 Te1'
_cell_volume   73.17163979
_cell_formula_units_Z   1
loop_
 _symmetry_equiv_pos_site_id
 _symmetry_equiv_pos_as_xyz
  1  'x, y, z'
loop_
 _atom_site_type_symbol
 _atom_site_label
 _atom_site_symmetry_multiplicity
 _atom_site_fract_x
 _atom_site_fract_y
 _atom_site_fract_z
 _atom_site_occupancy
  Na  Na0  1  0.24999988  0.74999953  0.49999965  1
  Be  Be1  1  0.00000000  0.00000000  0.00000000  1
  Be  Be2  1  0.49999975  0.49999975  0.00000000  1
  Te  Te3  1  0.74999953  0.24999988  0.49999965  1
