# generated using pymatgen
data_Ba3Ge2(B3O8)2
_symmetry_space_group_name_H-M   'P 1'
_cell_length_a   5.14228650
_cell_length_b   7.68411532
_cell_length_c   8.69974550
_cell_angle_alpha   102.67458389
_cell_angle_beta   102.71102426
_cell_angle_gamma   88.57469634
_symmetry_Int_Tables_number   1
_chemical_formula_structural   Ba3Ge2(B3O8)2
_chemical_formula_sum   'Ba3 Ge2 B6 O16'
_cell_volume   327.06582265
_cell_formula_units_Z   1
loop_
 _symmetry_equiv_pos_site_id
 _symmetry_equiv_pos_as_xyz
  1  'x, y, z'
loop_
 _atom_site_type_symbol
 _atom_site_label
 _atom_site_symmetry_multiplicity
 _atom_site_fract_x
 _atom_site_fract_y
 _atom_site_fract_z
 _atom_site_occupancy
  Ba  Ba0  1  0.50000027  0.50000028  0.00000002  1
  Ba  Ba1  1  0.38300607  0.91997062  0.74094290  1
  Ba  Ba2  1  0.61699432  0.08003007  0.25905747  1
  Ge  Ge3  1  0.77231568  0.66942925  0.44253937  1
  Ge  Ge4  1  0.22768470  0.33057145  0.55746100  1
  B  B5  1  0.03959744  0.19387838  0.97179306  1
  B  B6  1  0.96040294  0.80612231  0.02820731  1
  B  B7  1  0.96957012  0.59175429  0.75513688  1
  B  B8  1  0.80711195  0.25445531  0.70460739  1
  B  B9  1  0.19288844  0.74554538  0.29539298  1
  B  B10  1  0.03043027  0.40824640  0.24486348  1
  O  O11  1  0.13311972  0.56212219  0.20333680  1
  O  O12  1  0.91394175  0.27454396  0.09580811  1
  O  O13  1  0.08605864  0.72545673  0.90419225  1
  O  O14  1  0.30498673  0.17662287  0.99501815  1
  O  O15  1  0.69501366  0.82337782  0.00498221  1
  O  O16  1  0.86688067  0.43787850  0.79666356  1
  O  O17  1  0.76575190  0.67538320  0.64576670  1
  O  O18  1  0.78988097  0.45356646  0.31966582  1
  O  O19  1  0.51473153  0.21580570  0.63000157  1
  O  O20  1  0.48526885  0.78419499  0.36999879  1
  O  O21  1  0.21011942  0.54643423  0.68033455  1
  O  O22  1  0.12842318  0.86870148  0.18219974  1
  O  O23  1  0.95347307  0.20264424  0.57133550  1
  O  O24  1  0.04652732  0.79735645  0.42866487  1
  O  O25  1  0.23424849  0.32461749  0.35423367  1
  O  O26  1  0.87157721  0.13129921  0.81780062  1
