# generated using pymatgen
data_BeRePb
_symmetry_space_group_name_H-M   'P 1'
_cell_length_a   5.40726871
_cell_length_b   5.40726871
_cell_length_c   5.40726871
_cell_angle_alpha   145.43122077
_cell_angle_beta   145.43122077
_cell_angle_gamma   49.69237020
_symmetry_Int_Tables_number   1
_chemical_formula_structural   BeRePb
_chemical_formula_sum   'Be1 Re1 Pb1'
_cell_volume   50.65936078
_cell_formula_units_Z   1
loop_
 _symmetry_equiv_pos_site_id
 _symmetry_equiv_pos_as_xyz
  1  'x, y, z'
loop_
 _atom_site_type_symbol
 _atom_site_label
 _atom_site_symmetry_multiplicity
 _atom_site_fract_x
 _atom_site_fract_y
 _atom_site_fract_z
 _atom_site_occupancy
  Be  Be0  1  0.05283800  0.05283800  0.00000000  1
  Re  Re1  1  0.62085359  0.62085359  0.00000000  1
  Pb  Pb2  1  0.32630904  0.32630904  0.00000000  1
