# generated using pymatgen
data_NbFe2
_symmetry_space_group_name_H-M   'P 1'
_cell_length_a   4.76044918
_cell_length_b   4.76044051
_cell_length_c   7.77016336
_cell_angle_alpha   90.00000000
_cell_angle_beta   90.00000000
_cell_angle_gamma   120.00006025
_symmetry_Int_Tables_number   1
_chemical_formula_structural   NbFe2
_chemical_formula_sum   'Nb4 Fe8'
_cell_volume   152.49499591
_cell_formula_units_Z   4
loop_
 _symmetry_equiv_pos_site_id
 _symmetry_equiv_pos_as_xyz
  1  'x, y, z'
loop_
 _atom_site_type_symbol
 _atom_site_label
 _atom_site_symmetry_multiplicity
 _atom_site_fract_x
 _atom_site_fract_y
 _atom_site_fract_z
 _atom_site_occupancy
  Nb  Nb0  1  0.66666770  0.33333515  0.06545578  1
  Nb  Nb1  1  0.33333280  0.66666414  0.56545557  1
  Nb  Nb2  1  0.33333280  0.66666414  0.93454378  1
  Nb  Nb3  1  0.66666770  0.33333515  0.43454400  1
  Fe  Fe4  1  0.00000000  0.00000000  0.00000000  1
  Fe  Fe5  1  0.00000000  0.00000000  0.49999978  1
  Fe  Fe6  1  0.65846565  0.82923747  0.24999989  1
  Fe  Fe7  1  0.17077386  0.82923794  0.24999989  1
  Fe  Fe8  1  0.17077350  0.34154626  0.24999989  1
  Fe  Fe9  1  0.34153485  0.17076182  0.74999968  1
  Fe  Fe10  1  0.82922664  0.17076135  0.74999968  1
  Fe  Fe11  1  0.82922700  0.65845303  0.74999968  1
