# generated using pymatgen
data_BaMgF4
_symmetry_space_group_name_H-M   'P 1'
_cell_length_a   7.42763886
_cell_length_b   7.42763886
_cell_length_c   5.78710084
_cell_angle_alpha   90.00000000
_cell_angle_beta   90.00000000
_cell_angle_gamma   147.26677666
_symmetry_Int_Tables_number   1
_chemical_formula_structural   BaMgF4
_chemical_formula_sum   'Ba2 Mg2 F8'
_cell_volume   172.64007558
_cell_formula_units_Z   2
loop_
 _symmetry_equiv_pos_site_id
 _symmetry_equiv_pos_as_xyz
  1  'x, y, z'
loop_
 _atom_site_type_symbol
 _atom_site_label
 _atom_site_symmetry_multiplicity
 _atom_site_fract_x
 _atom_site_fract_y
 _atom_site_fract_z
 _atom_site_occupancy
  Ba  Ba0  1  0.85797270  0.14202837  0.24999996  1
  Ba  Ba1  1  0.14202837  0.85797270  0.74999989  1
  Mg  Mg2  1  0.40792048  0.59208058  0.74999989  1
  Mg  Mg3  1  0.59208058  0.40792048  0.24999996  1
  F  F4  1  0.31240463  0.68759644  0.51108728  1
  F  F5  1  0.68759644  0.31240463  0.01108735  1
  F  F6  1  0.31240463  0.68759644  0.98891250  1
  F  F7  1  0.68759644  0.31240463  0.48891257  1
  F  F8  1  0.50000053  0.50000053  0.49999993  1
  F  F9  1  0.50000053  0.50000053  0.00000000  1
  F  F10  1  0.91681336  0.08318771  0.74999989  1
  F  F11  1  0.08318771  0.91681336  0.24999996  1
