# generated using pymatgen
data_Er3Os
_symmetry_space_group_name_H-M   'P 1'
_cell_length_a   6.22342953
_cell_length_b   7.32079269
_cell_length_c   8.89801468
_cell_angle_alpha   90.00000000
_cell_angle_beta   90.00000000
_cell_angle_gamma   90.00000000
_symmetry_Int_Tables_number   1
_chemical_formula_structural   Er3Os
_chemical_formula_sum   'Er12 Os4'
_cell_volume   405.39744061
_cell_formula_units_Z   4
loop_
 _symmetry_equiv_pos_site_id
 _symmetry_equiv_pos_as_xyz
  1  'x, y, z'
loop_
 _atom_site_type_symbol
 _atom_site_label
 _atom_site_symmetry_multiplicity
 _atom_site_fract_x
 _atom_site_fract_y
 _atom_site_fract_z
 _atom_site_occupancy
  Er  Er0  1  0.83428862  0.17590284  0.93843288  1
  Er  Er1  1  0.33428858  0.32409698  0.06156659  1
  Er  Er2  1  0.16571146  0.82409679  0.43843315  1
  Er  Er3  1  0.66571150  0.67590266  0.56156633  1
  Er  Er4  1  0.16571146  0.82409679  0.06156659  1
  Er  Er5  1  0.66571150  0.67590266  0.93843288  1
  Er  Er6  1  0.83428862  0.17590284  0.56156633  1
  Er  Er7  1  0.33428858  0.32409698  0.43843315  1
  Er  Er8  1  0.37387040  0.03635564  0.74999961  1
  Er  Er9  1  0.87387044  0.46364418  0.24999987  1
  Er  Er10  1  0.62612967  0.96364399  0.24999987  1
  Er  Er11  1  0.12612963  0.53635546  0.74999961  1
  Os  Os12  1  0.54002451  0.38248608  0.74999961  1
  Os  Os13  1  0.04002447  0.11751373  0.24999987  1
  Os  Os14  1  0.45997557  0.61751355  0.24999987  1
  Os  Os15  1  0.95997560  0.88248590  0.74999961  1
