# generated using pymatgen
data_ZrBe2Nb
_symmetry_space_group_name_H-M   'P 1'
_cell_length_a   5.05359495
_cell_length_b   5.05359495
_cell_length_c   5.05359495
_cell_angle_alpha   136.86517569
_cell_angle_beta   136.86517569
_cell_angle_gamma   62.64555844
_symmetry_Int_Tables_number   1
_chemical_formula_structural   ZrBe2Nb
_chemical_formula_sum   'Zr1 Be2 Nb1'
_cell_volume   59.59202807
_cell_formula_units_Z   1
loop_
 _symmetry_equiv_pos_site_id
 _symmetry_equiv_pos_as_xyz
  1  'x, y, z'
loop_
 _atom_site_type_symbol
 _atom_site_label
 _atom_site_symmetry_multiplicity
 _atom_site_fract_x
 _atom_site_fract_y
 _atom_site_fract_z
 _atom_site_occupancy
  Zr  Zr0  1  0.74999983  0.24999973  0.50000010  1
  Be  Be1  1  0.00000000  0.00000000  0.00000000  1
  Be  Be2  1  0.24999973  0.74999983  0.50000010  1
  Nb  Nb3  1  0.49999946  0.49999946  0.00000000  1
