# generated using pymatgen
data_Mn2Ga2S5
_symmetry_space_group_name_H-M   'P 1'
_cell_length_a   3.67212296
_cell_length_b   3.67212296
_cell_length_c   15.23662861
_cell_angle_alpha   89.99924133
_cell_angle_beta   90.00075867
_cell_angle_gamma   120.00027916
_symmetry_Int_Tables_number   1
_chemical_formula_structural   Mn2Ga2S5
_chemical_formula_sum   'Mn2 Ga2 S5'
_cell_volume   177.93145152
_cell_formula_units_Z   1
loop_
 _symmetry_equiv_pos_site_id
 _symmetry_equiv_pos_as_xyz
  1  'x, y, z'
loop_
 _atom_site_type_symbol
 _atom_site_label
 _atom_site_symmetry_multiplicity
 _atom_site_fract_x
 _atom_site_fract_y
 _atom_site_fract_z
 _atom_site_occupancy
  Mn  Mn0  1  0.33333552  0.66666244  0.59573737  1
  Mn  Mn1  1  0.66666183  0.33333613  0.40426273  1
  Ga  Ga2  1  0.33331518  0.66668279  0.17079671  1
  Ga  Ga3  1  0.66668218  0.33331579  0.82920338  1
  S  S4  1  -0.00000031  0.00000031  0.50000005  1
  S  S5  1  0.33332486  0.66667311  0.31775521  1
  S  S6  1  0.66667250  0.33332547  0.68224488  1
  S  S7  1  0.33335087  0.66664709  0.89734991  1
  S  S8  1  0.66664648  0.33335148  0.10265018  1
