# generated using pymatgen
data_Ag(Mo3Se4)2
_symmetry_space_group_name_H-M   'P 1'
_cell_length_a   6.79878112
_cell_length_b   6.79878112
_cell_length_c   6.79878112
_cell_angle_alpha   91.63405421
_cell_angle_beta   91.63405421
_cell_angle_gamma   91.63405421
_symmetry_Int_Tables_number   1
_chemical_formula_structural   Ag(Mo3Se4)2
_chemical_formula_sum   'Ag1 Mo6 Se8'
_cell_volume   313.87210332
_cell_formula_units_Z   1
loop_
 _symmetry_equiv_pos_site_id
 _symmetry_equiv_pos_as_xyz
  1  'x, y, z'
loop_
 _atom_site_type_symbol
 _atom_site_label
 _atom_site_symmetry_multiplicity
 _atom_site_fract_x
 _atom_site_fract_y
 _atom_site_fract_z
 _atom_site_occupancy
  Ag  Ag0  1  0.00000000  0.00000000  0.00000000  1
  Mo  Mo1  1  0.55165163  0.41741304  0.23287851  1
  Mo  Mo2  1  0.23287825  0.55165174  0.41741358  1
  Mo  Mo3  1  0.41741320  0.23287831  0.55165169  1
  Mo  Mo4  1  0.44834758  0.58258618  0.76712128  1
  Mo  Mo5  1  0.76712096  0.44834747  0.58258621  1
  Mo  Mo6  1  0.58258601  0.76712090  0.44834809  1
  Se  Se7  1  0.22439018  0.22439018  0.22439031  1
  Se  Se8  1  0.77560903  0.77560903  0.77560948  1
  Se  Se9  1  0.12467860  0.37780595  0.74147332  1
  Se  Se10  1  0.74147314  0.12467838  0.37780558  1
  Se  Se11  1  0.37780562  0.74147303  0.12467916  1
  Se  Se12  1  0.87532062  0.62219327  0.25852646  1
  Se  Se13  1  0.25852607  0.87532083  0.62219420  1
  Se  Se14  1  0.62219359  0.25852619  0.87532062  1
