# generated using pymatgen
data_NaFeBP2H3O10
_symmetry_space_group_name_H-M   'P 1'
_cell_length_a   6.57463755
_cell_length_b   6.57463755
_cell_length_c   8.98938442
_cell_angle_alpha   69.07658259
_cell_angle_beta   69.07658259
_cell_angle_gamma   75.29468973
_symmetry_Int_Tables_number   1
_chemical_formula_structural   NaFeBP2H3O10
_chemical_formula_sum   'Na2 Fe2 B2 P4 H6 O20'
_cell_volume   335.44548529
_cell_formula_units_Z   2
loop_
 _symmetry_equiv_pos_site_id
 _symmetry_equiv_pos_as_xyz
  1  'x, y, z'
loop_
 _atom_site_type_symbol
 _atom_site_label
 _atom_site_symmetry_multiplicity
 _atom_site_fract_x
 _atom_site_fract_y
 _atom_site_fract_z
 _atom_site_occupancy
  Na  Na0  1  0.86088463  0.13911630  0.74999925  1
  Na  Na1  1  0.13911603  0.86088435  0.24999950  1
  Fe  Fe2  1  -0.00000021  0.50000026  -0.00000019  1
  Fe  Fe3  1  0.50000054  0.00000007  0.49999956  1
  B  B4  1  0.53586157  0.46413881  0.24999950  1
  B  B5  1  0.46413908  0.53586185  0.74999925  1
  P  P6  1  0.71325255  0.84097410  0.18182571  1
  P  P7  1  0.15902628  0.28674783  0.31817328  1
  P  P8  1  0.84097438  0.71325283  0.68182546  1
  P  P9  1  0.28674811  0.15902655  0.81817303  1
  H  H10  1  0.00000007  0.50000054  0.49999956  1
  H  H11  1  0.30453040  0.68710666  0.56485345  1
  H  H12  1  0.68710638  0.30453012  0.06485370  1
  H  H13  1  0.69547026  0.31289400  0.43514529  1
  H  H14  1  0.31289427  0.69547054  0.93514504  1
  H  H15  1  0.50000026  -0.00000021  -0.00000019  1
  O  O16  1  0.42940041  0.70208244  0.59570201  1
  O  O17  1  0.29791850  0.57060053  0.90429648  1
  O  O18  1  0.57060025  0.29791822  0.40429673  1
  O  O19  1  0.70208216  0.42940013  0.09570226  1
  O  O20  1  0.26977156  0.07904071  0.68256845  1
  O  O21  1  0.92096023  0.73022938  0.81743004  1
  O  O22  1  0.73022910  0.92095995  0.31743029  1
  O  O23  1  0.07904043  0.26977128  0.18256870  1
  O  O24  1  0.05742319  0.28066823  0.88614684  1
  O  O25  1  0.28066795  0.05742291  0.38614709  1
  O  O26  1  0.94257747  0.71933243  0.11385190  1
  O  O27  1  0.63738954  0.03846410  0.04420388  1
  O  O28  1  0.96153628  0.36261084  0.45579511  1
  O  O29  1  0.03846437  0.63738982  0.54420363  1
  O  O30  1  0.46500490  0.31597114  0.74421429  1
  O  O31  1  0.68402980  0.53499604  0.75578420  1
  O  O32  1  0.53499576  0.68402952  0.25578445  1
  O  O33  1  0.31597086  0.46500462  0.24421454  1
  O  O34  1  0.71933271  0.94257774  0.61385165  1
  O  O35  1  0.36261112  0.96153656  0.95579486  1
