# generated using pymatgen
data_NbSe4
_symmetry_space_group_name_H-M   'P 1'
_cell_length_a   5.98647022
_cell_length_b   5.98647022
_cell_length_c   6.45754630
_cell_angle_alpha   90.00000000
_cell_angle_beta   90.00000000
_cell_angle_gamma   90.00000000
_symmetry_Int_Tables_number   1
_chemical_formula_structural   NbSe4
_chemical_formula_sum   'Nb2 Se8'
_cell_volume   231.42441865
_cell_formula_units_Z   2
loop_
 _symmetry_equiv_pos_site_id
 _symmetry_equiv_pos_as_xyz
  1  'x, y, z'
loop_
 _atom_site_type_symbol
 _atom_site_label
 _atom_site_symmetry_multiplicity
 _atom_site_fract_x
 _atom_site_fract_y
 _atom_site_fract_z
 _atom_site_occupancy
  Nb  Nb0  1  0.00000000  0.00000000  0.24500559  1
  Nb  Nb1  1  0.00000000  0.00000000  0.74500588  1
  Se  Se2  1  0.13937644  0.33645716  0.99499921  1
  Se  Se3  1  0.86062352  0.66354280  0.99499921  1
  Se  Se4  1  0.66354280  0.13937644  0.99499921  1
  Se  Se5  1  0.33645716  0.86062352  0.99499921  1
  Se  Se6  1  0.13937644  0.66354280  0.49499892  1
  Se  Se7  1  0.86062352  0.33645716  0.49499892  1
  Se  Se8  1  0.66354280  0.86062352  0.49499892  1
  Se  Se9  1  0.33645716  0.13937644  0.49499892  1
