# generated using pymatgen
data_CeGeRh
_symmetry_space_group_name_H-M   'P 1'
_cell_length_a   4.45980103
_cell_length_b   7.54470619
_cell_length_c   7.04162229
_cell_angle_alpha   90.00000000
_cell_angle_beta   90.00000000
_cell_angle_gamma   90.00000000
_symmetry_Int_Tables_number   1
_chemical_formula_structural   CeGeRh
_chemical_formula_sum   'Ce4 Ge4 Rh4'
_cell_volume   236.93572117
_cell_formula_units_Z   4
loop_
 _symmetry_equiv_pos_site_id
 _symmetry_equiv_pos_as_xyz
  1  'x, y, z'
loop_
 _atom_site_type_symbol
 _atom_site_label
 _atom_site_symmetry_multiplicity
 _atom_site_fract_x
 _atom_site_fract_y
 _atom_site_fract_z
 _atom_site_occupancy
  Ce  Ce0  1  0.74999983  0.79892162  0.98195551  1
  Ce  Ce1  1  0.24999994  0.29892137  0.51804400  1
  Ce  Ce2  1  0.24999994  0.20107889  0.01804416  1
  Ce  Ce3  1  0.74999983  0.70107914  0.48195567  1
  Ge  Ge4  1  0.74999983  0.41529818  0.81797349  1
  Ge  Ge5  1  0.24999994  0.91529843  0.68202602  1
  Ge  Ge6  1  0.24999994  0.58470232  0.18202618  1
  Ge  Ge7  1  0.74999983  0.08470207  0.31797365  1
  Rh  Rh8  1  0.74999983  0.41555322  0.21710525  1
  Rh  Rh9  1  0.24999994  0.91555347  0.28289458  1
  Rh  Rh10  1  0.24999994  0.58444729  0.78289442  1
  Rh  Rh11  1  0.74999983  0.08444704  0.71710509  1
