# generated using pymatgen
data_La3S4
_symmetry_space_group_name_H-M   'P 1'
_cell_length_a   7.57210656
_cell_length_b   7.57210656
_cell_length_c   7.57210656
_cell_angle_alpha   109.47122063
_cell_angle_beta   109.47122063
_cell_angle_gamma   109.47122063
_symmetry_Int_Tables_number   1
_chemical_formula_structural   La3S4
_chemical_formula_sum   'La6 S8'
_cell_volume   334.21678758
_cell_formula_units_Z   2
loop_
 _symmetry_equiv_pos_site_id
 _symmetry_equiv_pos_as_xyz
  1  'x, y, z'
loop_
 _atom_site_type_symbol
 _atom_site_label
 _atom_site_symmetry_multiplicity
 _atom_site_fract_x
 _atom_site_fract_y
 _atom_site_fract_z
 _atom_site_occupancy
  La  La0  1  0.75000038  0.37500019  0.12500006  1
  La  La1  1  0.25000013  0.12500006  0.37500019  1
  La  La2  1  0.37500019  0.62500032  0.25000013  1
  La  La3  1  0.12500006  0.87500045  0.75000038  1
  La  La4  1  0.87500045  0.25000013  0.62500032  1
  La  La5  1  0.62500032  0.75000038  0.87500045  1
  S  S6  1  0.00000000  0.15033767  0.00000000  1
  S  S7  1  0.34966259  0.34966259  0.84966284  1
  S  S8  1  0.15033767  0.50000026  0.50000026  1
  S  S9  1  0.50000026  -0.00000000  0.65033792  1
  S  S10  1  0.00000000  0.65033792  0.00000000  1
  S  S11  1  0.84966284  0.84966284  0.34966259  1
  S  S12  1  0.50000026  -0.00000000  0.15033767  1
  S  S13  1  0.65033792  0.50000026  0.50000026  1
