# generated using pymatgen
data_BeCo4Cu
_symmetry_space_group_name_H-M   'P 1'
_cell_length_a   4.60198263
_cell_length_b   4.60198263
_cell_length_c   4.60198263
_cell_angle_alpha   60.00000000
_cell_angle_beta   60.00000000
_cell_angle_gamma   60.00000000
_symmetry_Int_Tables_number   1
_chemical_formula_structural   BeCo4Cu
_chemical_formula_sum   'Be1 Co4 Cu1'
_cell_volume   68.91597842
_cell_formula_units_Z   1
loop_
 _symmetry_equiv_pos_site_id
 _symmetry_equiv_pos_as_xyz
  1  'x, y, z'
loop_
 _atom_site_type_symbol
 _atom_site_label
 _atom_site_symmetry_multiplicity
 _atom_site_fract_x
 _atom_site_fract_y
 _atom_site_fract_z
 _atom_site_occupancy
  Be  Be0  1  0.00000000  0.00000000  0.00000000  1
  Co  Co1  1  0.12451493  0.62516105  0.62516105  1
  Co  Co2  1  0.62516105  0.62516105  0.62516105  1
  Co  Co3  1  0.62516105  0.12451493  0.62516105  1
  Co  Co4  1  0.62516105  0.62516105  0.12451493  1
  Cu  Cu5  1  0.24999976  0.24999976  0.24999976  1
