# generated using pymatgen
data_ScAl2Ni
_symmetry_space_group_name_H-M   'P 1'
_cell_length_a   5.15607643
_cell_length_b   5.15607643
_cell_length_c   6.66969083
_cell_angle_alpha   90.00000000
_cell_angle_beta   90.00000000
_cell_angle_gamma   134.34557470
_symmetry_Int_Tables_number   1
_chemical_formula_structural   ScAl2Ni
_chemical_formula_sum   'Sc2 Al4 Ni2'
_cell_volume   126.80419585
_cell_formula_units_Z   2
loop_
 _symmetry_equiv_pos_site_id
 _symmetry_equiv_pos_as_xyz
  1  'x, y, z'
loop_
 _atom_site_type_symbol
 _atom_site_label
 _atom_site_symmetry_multiplicity
 _atom_site_fract_x
 _atom_site_fract_y
 _atom_site_fract_z
 _atom_site_occupancy
  Sc  Sc0  1  0.43336535  0.56663601  0.74999991  1
  Sc  Sc1  1  0.56663601  0.43336535  0.24999997  1
  Al  Al2  1  0.14571785  0.85428351  0.94945680  1
  Al  Al3  1  0.85428351  0.14571785  0.44945686  1
  Al  Al4  1  0.14571785  0.85428351  0.55054301  1
  Al  Al5  1  0.85428351  0.14571785  0.05054308  1
  Ni  Ni6  1  0.71048837  0.28951298  0.74999991  1
  Ni  Ni7  1  0.28951298  0.71048837  0.24999997  1
