# generated using pymatgen
data_Sr2FeMoO6
_symmetry_space_group_name_H-M   'P 1'
_cell_length_a   5.48514499
_cell_length_b   5.48514499
_cell_length_c   5.48514499
_cell_angle_alpha   120.00600741
_cell_angle_beta   120.00600741
_cell_angle_gamma   89.98959518
_symmetry_Int_Tables_number   1
_chemical_formula_structural   Sr2FeMoO6
_chemical_formula_sum   'Sr2 Fe1 Mo1 O6'
_cell_volume   116.68361963
_cell_formula_units_Z   1
loop_
 _symmetry_equiv_pos_site_id
 _symmetry_equiv_pos_as_xyz
  1  'x, y, z'
loop_
 _atom_site_type_symbol
 _atom_site_label
 _atom_site_symmetry_multiplicity
 _atom_site_fract_x
 _atom_site_fract_y
 _atom_site_fract_z
 _atom_site_occupancy
  Sr  Sr0  1  0.74999967  0.25000033  0.49999940  1
  Sr  Sr1  1  0.25000027  0.74999967  0.49999934  1
  Fe  Fe2  1  0.00000000  0.00000000  0.00000000  1
  Mo  Mo3  1  0.50000060  0.50000060  0.00000000  1
  O  O4  1  0.74999599  0.24891626  0.99891225  1
  O  O5  1  0.25000395  0.75108374  0.00108649  1
  O  O6  1  0.24891620  0.25000275  0.49891895  1
  O  O7  1  0.75108374  0.74999725  0.50107979  1
  O  O8  1  0.24947042  0.24947042  -0.00000000  1
  O  O9  1  0.75053077  0.75053077  0.00000000  1
