# generated using pymatgen
data_HoOs2
_symmetry_space_group_name_H-M   'P 1'
_cell_length_a   5.31022057
_cell_length_b   5.31022057
_cell_length_c   8.85297049
_cell_angle_alpha   90.00000000
_cell_angle_beta   90.00000000
_cell_angle_gamma   119.99995490
_symmetry_Int_Tables_number   1
_chemical_formula_structural   HoOs2
_chemical_formula_sum   'Ho4 Os8'
_cell_volume   216.19466238
_cell_formula_units_Z   4
loop_
 _symmetry_equiv_pos_site_id
 _symmetry_equiv_pos_as_xyz
  1  'x, y, z'
loop_
 _atom_site_type_symbol
 _atom_site_label
 _atom_site_symmetry_multiplicity
 _atom_site_fract_x
 _atom_site_fract_y
 _atom_site_fract_z
 _atom_site_occupancy
  Ho  Ho0  1  0.33333246  0.66666675  0.06562550  1
  Ho  Ho1  1  0.66666675  0.33333246  0.56562548  1
  Ho  Ho2  1  0.66666675  0.33333246  0.93437444  1
  Ho  Ho3  1  0.33333246  0.66666675  0.43437447  1
  Os  Os4  1  0.00000000  0.00000000  0.00000000  1
  Os  Os5  1  0.00000000  0.00000000  0.49999997  1
  Os  Os6  1  0.82817663  0.65635770  0.24999999  1
  Os  Os7  1  0.34364151  0.17182258  0.24999999  1
  Os  Os8  1  0.82817782  0.17182139  0.24999999  1
  Os  Os9  1  0.17182258  0.34364151  0.74999996  1
  Os  Os10  1  0.65635770  0.82817663  0.74999996  1
  Os  Os11  1  0.17182139  0.82817782  0.74999996  1
