# generated using pymatgen
data_DyCo4B
_symmetry_space_group_name_H-M   'P 1'
_cell_length_a   4.96806326
_cell_length_b   4.96806326
_cell_length_c   6.83456336
_cell_angle_alpha   90.00000000
_cell_angle_beta   90.00000000
_cell_angle_gamma   119.99779904
_symmetry_Int_Tables_number   1
_chemical_formula_structural   DyCo4B
_chemical_formula_sum   'Dy2 Co8 B2'
_cell_volume   146.09160899
_cell_formula_units_Z   2
loop_
 _symmetry_equiv_pos_site_id
 _symmetry_equiv_pos_as_xyz
  1  'x, y, z'
loop_
 _atom_site_type_symbol
 _atom_site_label
 _atom_site_symmetry_multiplicity
 _atom_site_fract_x
 _atom_site_fract_y
 _atom_site_fract_z
 _atom_site_occupancy
  Dy  Dy0  1  0.00000000  0.00000000  0.00000000  1
  Dy  Dy1  1  0.00000000  0.00000000  0.49999975  1
  Co  Co2  1  0.33344144  0.66655684  0.00000000  1
  Co  Co3  1  0.66655684  0.33344144  0.00000000  1
  Co  Co4  1  0.49999950  -0.00000036  0.28640601  1
  Co  Co5  1  -0.00000036  0.49999950  0.28640601  1
  Co  Co6  1  0.49999914  0.49999914  0.28649357  1
  Co  Co7  1  -0.00000036  0.49999950  0.71359350  1
  Co  Co8  1  0.49999950  -0.00000036  0.71359350  1
  Co  Co9  1  0.49999914  0.49999914  0.71350594  1
  B  B10  1  0.33329673  0.66670155  0.49999975  1
  B  B11  1  0.66670155  0.33329673  0.49999975  1
