# generated using pymatgen
data_K2BaZn
_symmetry_space_group_name_H-M   'P 1'
_cell_length_a   4.23087321
_cell_length_b   4.23087321
_cell_length_c   11.01540550
_cell_angle_alpha   90.00000000
_cell_angle_beta   90.00000000
_cell_angle_gamma   90.00000000
_symmetry_Int_Tables_number   1
_chemical_formula_structural   K2BaZn
_chemical_formula_sum   'K2 Ba1 Zn1'
_cell_volume   197.17893227
_cell_formula_units_Z   1
loop_
 _symmetry_equiv_pos_site_id
 _symmetry_equiv_pos_as_xyz
  1  'x, y, z'
loop_
 _atom_site_type_symbol
 _atom_site_label
 _atom_site_symmetry_multiplicity
 _atom_site_fract_x
 _atom_site_fract_y
 _atom_site_fract_z
 _atom_site_occupancy
  K  K0  1  0.00000000  0.00000000  0.98976073  1
  K  K1  1  0.49999962  0.49999962  0.31849361  1
  Ba  Ba2  1  0.49999962  0.49999962  0.67174602  1
  Zn  Zn3  1  0.00000000  0.00000000  0.51999966  1
