# generated using pymatgen
data_Be2InTc
_symmetry_space_group_name_H-M   'P 1'
_cell_length_a   2.97311693
_cell_length_b   2.97311693
_cell_length_c   6.19653470
_cell_angle_alpha   90.00000000
_cell_angle_beta   90.00000000
_cell_angle_gamma   90.00000000
_symmetry_Int_Tables_number   1
_chemical_formula_structural   Be2InTc
_chemical_formula_sum   'Be2 In1 Tc1'
_cell_volume   54.77379938
_cell_formula_units_Z   1
loop_
 _symmetry_equiv_pos_site_id
 _symmetry_equiv_pos_as_xyz
  1  'x, y, z'
loop_
 _atom_site_type_symbol
 _atom_site_label
 _atom_site_symmetry_multiplicity
 _atom_site_fract_x
 _atom_site_fract_y
 _atom_site_fract_z
 _atom_site_occupancy
  Be  Be0  1  0.00000000  0.00000000  0.00534057  1
  Be  Be1  1  0.50000052  0.50000052  0.18144018  1
  In  In2  1  0.00000000  0.00000000  0.49376855  1
  Tc  Tc3  1  0.50000052  0.50000052  0.81944956  1
