# generated using pymatgen
data_B3Ru2
_symmetry_space_group_name_H-M   'P 1'
_cell_length_a   2.83144623
_cell_length_b   2.83145289
_cell_length_c   13.59152578
_cell_angle_alpha   90.00000000
_cell_angle_beta   90.00000000
_cell_angle_gamma   119.99992148
_symmetry_Int_Tables_number   1
_chemical_formula_structural   B3Ru2
_chemical_formula_sum   'B6 Ru4'
_cell_volume   94.36628260
_cell_formula_units_Z   2
loop_
 _symmetry_equiv_pos_site_id
 _symmetry_equiv_pos_as_xyz
  1  'x, y, z'
loop_
 _atom_site_type_symbol
 _atom_site_label
 _atom_site_symmetry_multiplicity
 _atom_site_fract_x
 _atom_site_fract_y
 _atom_site_fract_z
 _atom_site_occupancy
  B  B0  1  0.66669398  0.33339082  0.80949744  1
  B  B1  1  0.33330374  0.66660941  0.30949728  1
  B  B2  1  0.33330374  0.66660941  0.19050287  1
  B  B3  1  0.66669398  0.33339082  0.69050303  1
  B  B4  1  0.99996610  0.99993798  0.25000008  1
  B  B5  1  0.00003162  0.00006224  0.75000023  1
  Ru  Ru6  1  0.66664397  0.33328979  0.42105420  1
  Ru  Ru7  1  0.33335375  0.66671043  0.92105436  1
  Ru  Ru8  1  0.33335375  0.66671043  0.57894611  1
  Ru  Ru9  1  0.66664397  0.33328979  0.07894595  1
