# generated using pymatgen
data_La5Si3
_symmetry_space_group_name_H-M   'P 1'
_cell_length_a   8.95027039
_cell_length_b   8.95027039
_cell_length_c   6.85156030
_cell_angle_alpha   90.00000000
_cell_angle_beta   90.00000000
_cell_angle_gamma   119.99993299
_symmetry_Int_Tables_number   1
_chemical_formula_structural   La5Si3
_chemical_formula_sum   'La10 Si6'
_cell_volume   475.32725879
_cell_formula_units_Z   2
loop_
 _symmetry_equiv_pos_site_id
 _symmetry_equiv_pos_as_xyz
  1  'x, y, z'
loop_
 _atom_site_type_symbol
 _atom_site_label
 _atom_site_symmetry_multiplicity
 _atom_site_fract_x
 _atom_site_fract_y
 _atom_site_fract_z
 _atom_site_occupancy
  La  La0  1  0.33333379  0.66666627  0.00000000  1
  La  La1  1  0.66666627  0.33333379  0.49999998  1
  La  La2  1  0.66666627  0.33333379  0.00000000  1
  La  La3  1  0.33333379  0.66666627  0.49999998  1
  La  La4  1  0.25028466  -0.00000009  0.24999999  1
  La  La5  1  -0.00000009  0.25028466  0.24999999  1
  La  La6  1  0.74971592  0.74971592  0.24999999  1
  La  La7  1  0.74971544  0.00000006  0.74999997  1
  La  La8  1  0.00000006  0.74971544  0.74999997  1
  La  La9  1  0.25028414  0.25028414  0.74999997  1
  Si  Si10  1  0.60815918  -0.00000010  0.24999999  1
  Si  Si11  1  -0.00000010  0.60815918  0.24999999  1
  Si  Si12  1  0.39184073  0.39184073  0.24999999  1
  Si  Si13  1  0.39184092  0.00000006  0.74999997  1
  Si  Si14  1  0.00000006  0.39184092  0.74999997  1
  Si  Si15  1  0.60815933  0.60815933  0.74999997  1
