# generated using pymatgen
data_MgBe2Tl
_symmetry_space_group_name_H-M   'P 1'
_cell_length_a   4.92781125
_cell_length_b   4.92781125
_cell_length_c   4.92781125
_cell_angle_alpha   132.34756590
_cell_angle_beta   132.34756590
_cell_angle_gamma   69.68063519
_symmetry_Int_Tables_number   1
_chemical_formula_structural   MgBe2Tl
_chemical_formula_sum   'Mg1 Be2 Tl1'
_cell_volume   64.10868275
_cell_formula_units_Z   1
loop_
 _symmetry_equiv_pos_site_id
 _symmetry_equiv_pos_as_xyz
  1  'x, y, z'
loop_
 _atom_site_type_symbol
 _atom_site_label
 _atom_site_symmetry_multiplicity
 _atom_site_fract_x
 _atom_site_fract_y
 _atom_site_fract_z
 _atom_site_occupancy
  Mg  Mg0  1  0.50000021  0.50000021  0.00000000  1
  Be  Be1  1  0.00000000  0.00000000  0.00000000  1
  Be  Be2  1  0.25000010  0.75000062  0.50000052  1
  Tl  Tl3  1  0.75000062  0.25000010  0.50000052  1
