# generated using pymatgen
data_BaZr4Hg
_symmetry_space_group_name_H-M   'P 1'
_cell_length_a   6.05819567
_cell_length_b   6.05819567
_cell_length_c   6.05819567
_cell_angle_alpha   60.00000000
_cell_angle_beta   60.00000000
_cell_angle_gamma   60.00000000
_symmetry_Int_Tables_number   1
_chemical_formula_structural   BaZr4Hg
_chemical_formula_sum   'Ba1 Zr4 Hg1'
_cell_volume   157.22257027
_cell_formula_units_Z   1
loop_
 _symmetry_equiv_pos_site_id
 _symmetry_equiv_pos_as_xyz
  1  'x, y, z'
loop_
 _atom_site_type_symbol
 _atom_site_label
 _atom_site_symmetry_multiplicity
 _atom_site_fract_x
 _atom_site_fract_y
 _atom_site_fract_z
 _atom_site_occupancy
  Ba  Ba0  1  0.24999993  0.24999993  0.24999993  1
  Zr  Zr1  1  0.12449185  0.62516952  0.62516952  1
  Zr  Zr2  1  0.62516952  0.62516952  0.62516952  1
  Zr  Zr3  1  0.62516952  0.12449185  0.62516952  1
  Zr  Zr4  1  0.62516952  0.62516952  0.12449185  1
  Hg  Hg5  1  0.00000000  0.00000000  0.00000000  1
