# generated using pymatgen
data_BeBi4Rh
_symmetry_space_group_name_H-M   'P 1'
_cell_length_a   6.34066858
_cell_length_b   6.34066858
_cell_length_c   6.34066858
_cell_angle_alpha   60.00000000
_cell_angle_beta   60.00000000
_cell_angle_gamma   60.00000000
_symmetry_Int_Tables_number   1
_chemical_formula_structural   BeBi4Rh
_chemical_formula_sum   'Be1 Bi4 Rh1'
_cell_volume   180.25618009
_cell_formula_units_Z   1
loop_
 _symmetry_equiv_pos_site_id
 _symmetry_equiv_pos_as_xyz
  1  'x, y, z'
loop_
 _atom_site_type_symbol
 _atom_site_label
 _atom_site_symmetry_multiplicity
 _atom_site_fract_x
 _atom_site_fract_y
 _atom_site_fract_z
 _atom_site_occupancy
  Be  Be0  1  0.00000000  0.00000000  0.00000000  1
  Bi  Bi1  1  0.12353796  0.62548772  0.62548772  1
  Bi  Bi2  1  0.62548772  0.62548772  0.62548772  1
  Bi  Bi3  1  0.62548772  0.12353796  0.62548772  1
  Bi  Bi4  1  0.62548772  0.62548772  0.12353796  1
  Rh  Rh5  1  0.25000001  0.25000001  0.25000001  1
