# generated using pymatgen
data_BeFeBi2
_symmetry_space_group_name_H-M   'P 1'
_cell_length_a   5.02203321
_cell_length_b   5.02203321
_cell_length_c   5.02203321
_cell_angle_alpha   124.16186230
_cell_angle_beta   124.16186230
_cell_angle_gamma   82.93094836
_symmetry_Int_Tables_number   1
_chemical_formula_structural   BeFeBi2
_chemical_formula_sum   'Be1 Fe1 Bi2'
_cell_volume   83.23259923
_cell_formula_units_Z   1
loop_
 _symmetry_equiv_pos_site_id
 _symmetry_equiv_pos_as_xyz
  1  'x, y, z'
loop_
 _atom_site_type_symbol
 _atom_site_label
 _atom_site_symmetry_multiplicity
 _atom_site_fract_x
 _atom_site_fract_y
 _atom_site_fract_z
 _atom_site_occupancy
  Be  Be0  1  0.75000117  0.25000033  0.50000084  1
  Fe  Fe1  1  0.25000033  0.75000117  0.50000084  1
  Bi  Bi2  1  0.00000000  0.00000000  0.00000000  1
  Bi  Bi3  1  0.50000066  0.50000066  0.00000000  1
