# generated using pymatgen
data_LiAl(SiO3)2
_symmetry_space_group_name_H-M   'P 1'
_cell_length_a   5.18876664
_cell_length_b   8.49878721
_cell_length_c   9.15063052
_cell_angle_alpha   90.00000000
_cell_angle_beta   102.77449444
_cell_angle_gamma   90.00000000
_symmetry_Int_Tables_number   1
_chemical_formula_structural   LiAl(SiO3)2
_chemical_formula_sum   'Li4 Al4 Si8 O24'
_cell_volume   393.53841339
_cell_formula_units_Z   4
loop_
 _symmetry_equiv_pos_site_id
 _symmetry_equiv_pos_as_xyz
  1  'x, y, z'
loop_
 _atom_site_type_symbol
 _atom_site_label
 _atom_site_symmetry_multiplicity
 _atom_site_fract_x
 _atom_site_fract_y
 _atom_site_fract_z
 _atom_site_occupancy
  Li  Li0  1  0.02200997  0.01253764  0.25267519  1
  Li  Li1  1  0.47798953  0.51253781  0.74732439  1
  Li  Li2  1  0.97798919  0.98746268  0.74732425  1
  Li  Li3  1  0.52200963  0.48746252  0.25267506  1
  Al  Al4  1  0.02628441  0.65471630  0.24992442  1
  Al  Al5  1  0.47371509  0.15471614  0.75007516  1
  Al  Al6  1  0.97371475  0.34528403  0.75007502  1
  Al  Al7  1  0.52628407  0.84528419  0.24992429  1
  Si  Si8  1  0.81327807  0.65815755  0.54985850  1
  Si  Si9  1  0.68672075  0.15815738  0.45014081  1
  Si  Si10  1  0.31327841  0.84184295  0.54985864  1
  Si  Si11  1  0.18672109  0.34184278  0.45014095  1
  Si  Si12  1  0.22890153  0.65719332  0.95237692  1
  Si  Si13  1  0.72890119  0.84280718  0.95237678  1
  Si  Si14  1  0.77109763  0.34280701  0.04762253  1
  Si  Si15  1  0.27109797  0.15719315  0.04762266  1
  O  O16  1  0.24872459  0.83034741  0.36341068  1
  O  O17  1  0.37626277  0.21144062  0.39189115  1
  O  O18  1  0.12373673  0.71144079  0.60810844  1
  O  O19  1  0.76908244  0.49152990  0.62445248  1
  O  O20  1  0.73091638  0.99153006  0.37554683  1
  O  O21  1  0.23091672  0.50847043  0.37554696  1
  O  O22  1  0.26908278  0.00847026  0.62445262  1
  O  O23  1  0.74872425  0.66965308  0.36341054  1
  O  O24  1  0.75127457  0.16965292  0.63658877  1
  O  O25  1  0.25127491  0.33034725  0.63658890  1
  O  O26  1  0.01251657  0.21737762  0.10973287  1
  O  O27  1  0.19762213  0.17026061  0.86172468  1
  O  O28  1  0.98748259  0.78262271  0.89026657  1
  O  O29  1  0.51251623  0.28262254  0.10973274  1
  O  O30  1  0.32978340  0.98473813  0.11776069  1
  O  O31  1  0.17021610  0.48473797  0.88223890  1
  O  O32  1  0.67021576  0.01526220  0.88223876  1
  O  O33  1  0.82978306  0.51526236  0.11776055  1
  O  O34  1  0.87626243  0.28855954  0.39189101  1
  O  O35  1  0.30237737  0.67026078  0.13827490  1
  O  O36  1  0.80237703  0.82973972  0.13827476  1
  O  O37  1  0.69762179  0.32973955  0.86172455  1
  O  O38  1  0.48748293  0.71737779  0.89026671  1
  O  O39  1  0.62373639  0.78855971  0.60810830  1
