# generated using pymatgen
data_HoCu2
_symmetry_space_group_name_H-M   'P 1'
_cell_length_a   5.39546980
_cell_length_b   5.39546980
_cell_length_c   5.39546980
_cell_angle_alpha   133.67059902
_cell_angle_beta   102.99546987
_cell_angle_gamma   94.85386621
_symmetry_Int_Tables_number   1
_chemical_formula_structural   HoCu2
_chemical_formula_sum   'Ho2 Cu4'
_cell_volume   104.09102792
_cell_formula_units_Z   2
loop_
 _symmetry_equiv_pos_site_id
 _symmetry_equiv_pos_as_xyz
  1  'x, y, z'
loop_
 _atom_site_type_symbol
 _atom_site_label
 _atom_site_symmetry_multiplicity
 _atom_site_fract_x
 _atom_site_fract_y
 _atom_site_fract_z
 _atom_site_occupancy
  Ho  Ho0  1  0.79206568  0.54206537  0.25000031  1
  Ho  Ho1  1  0.20793541  0.45793606  0.75000126  1
  Cu  Cu2  1  0.21217557  0.16476981  0.04740576  1
  Cu  Cu3  1  0.61736467  0.16476981  0.45259486  1
  Cu  Cu4  1  0.38263643  0.83523162  0.54740671  1
  Cu  Cu5  1  0.78782552  0.83523162  0.95259581  1
