# generated using pymatgen
data_Al5BO9
_symmetry_space_group_name_H-M   'P 1'
_cell_length_a   8.08380589
_cell_length_b   8.08380589
_cell_length_c   7.76104424
_cell_angle_alpha   90.00000000
_cell_angle_beta   90.00000000
_cell_angle_gamma   138.50027866
_symmetry_Int_Tables_number   1
_chemical_formula_structural   Al5BO9
_chemical_formula_sum   'Al10 B2 O18'
_cell_volume   336.05788974
_cell_formula_units_Z   2
loop_
 _symmetry_equiv_pos_site_id
 _symmetry_equiv_pos_as_xyz
  1  'x, y, z'
loop_
 _atom_site_type_symbol
 _atom_site_label
 _atom_site_symmetry_multiplicity
 _atom_site_fract_x
 _atom_site_fract_y
 _atom_site_fract_z
 _atom_site_occupancy
  Al  Al0  1  0.36748389  0.13589291  0.66762397  1
  Al  Al1  1  0.29706199  0.70293745  0.83350935  1
  Al  Al2  1  0.55613672  0.44386272  0.98327252  1
  Al  Al3  1  0.44386272  0.55613672  0.48327279  1
  Al  Al4  1  0.74471618  0.25528326  0.98141360  1
  Al  Al5  1  0.70293745  0.29706199  0.33350963  1
  Al  Al6  1  0.86410654  0.63251555  0.66762397  1
  Al  Al7  1  0.13589291  0.36748389  0.16762424  1
  Al  Al8  1  0.63251555  0.86410654  0.16762424  1
  Al  Al9  1  0.25528326  0.74471618  0.48141388  1
  B  B10  1  0.01551229  0.98448715  0.94567058  1
  B  B11  1  0.98448715  0.01551229  0.44567086  1
  O  O12  1  0.95395608  0.04604336  0.07424358  1
  O  O13  1  0.74228089  0.83780024  0.38135623  1
  O  O14  1  0.25771855  0.16219920  0.88135595  1
  O  O15  1  0.80898654  0.19101290  0.23197718  1
  O  O16  1  0.19101290  0.80898654  0.73197690  1
  O  O17  1  0.64812568  0.35187376  0.12932276  1
  O  O18  1  0.35187376  0.64812568  0.62932249  1
  O  O19  1  0.04604336  0.95395608  0.57424331  1
  O  O20  1  0.44669537  0.06717577  0.46689652  1
  O  O21  1  0.45452698  0.54547246  0.09530905  1
  O  O22  1  0.93282367  0.55330407  0.46689652  1
  O  O23  1  0.06717577  0.44669537  0.96689625  1
  O  O24  1  0.55330407  0.93282367  0.96689625  1
  O  O25  1  0.16219920  0.25771855  0.38135623  1
  O  O26  1  0.66955250  0.33044695  0.79832252  1
  O  O27  1  0.33044695  0.66955250  0.29832279  1
  O  O28  1  0.54547246  0.45452698  0.59530878  1
  O  O29  1  0.83780024  0.74228089  0.88135595  1
