# generated using pymatgen
data_UMnO4
_symmetry_space_group_name_H-M   'P 1'
_cell_length_a   5.81322032
_cell_length_b   5.81322032
_cell_length_c   5.81322032
_cell_angle_alpha   110.26530955
_cell_angle_beta   111.87912626
_cell_angle_gamma   106.31885426
_symmetry_Int_Tables_number   1
_chemical_formula_structural   UMnO4
_chemical_formula_sum   'U2 Mn2 O8'
_cell_volume   150.85400741
_cell_formula_units_Z   2
loop_
 _symmetry_equiv_pos_site_id
 _symmetry_equiv_pos_as_xyz
  1  'x, y, z'
loop_
 _atom_site_type_symbol
 _atom_site_label
 _atom_site_symmetry_multiplicity
 _atom_site_fract_x
 _atom_site_fract_y
 _atom_site_fract_z
 _atom_site_occupancy
  U  U0  1  0.78909910  0.74999968  0.03909943  1
  U  U1  1  0.21090017  0.24999978  0.96089973  1
  Mn  Mn2  1  0.49999949  0.00000000  0.49999949  1
  Mn  Mn3  1  0.00000000  0.49999967  0.49999967  1
  O  O4  1  0.78510057  0.05447574  0.33957652  1
  O  O5  1  0.78510057  0.44552404  0.73062483  1
  O  O6  1  0.21489871  0.94552371  0.66042264  1
  O  O7  1  0.21489871  0.55447541  0.26937433  1
  O  O8  1  0.22742514  0.02813582  0.19928932  1
  O  O9  1  0.67115328  0.47186396  0.19928932  1
  O  O10  1  0.32884600  0.52813549  0.80070984  1
  O  O11  1  0.77257413  0.97186363  0.80070984  1
