# generated using pymatgen
data_BaGaBr2
_symmetry_space_group_name_H-M   'P 1'
_cell_length_a   4.16555749
_cell_length_b   4.16555749
_cell_length_c   7.22846104
_cell_angle_alpha   90.00000000
_cell_angle_beta   90.00000000
_cell_angle_gamma   90.00000000
_symmetry_Int_Tables_number   1
_chemical_formula_structural   BaGaBr2
_chemical_formula_sum   'Ba1 Ga1 Br2'
_cell_volume   125.42731049
_cell_formula_units_Z   1
loop_
 _symmetry_equiv_pos_site_id
 _symmetry_equiv_pos_as_xyz
  1  'x, y, z'
loop_
 _atom_site_type_symbol
 _atom_site_label
 _atom_site_symmetry_multiplicity
 _atom_site_fract_x
 _atom_site_fract_y
 _atom_site_fract_z
 _atom_site_occupancy
  Ba  Ba0  1  0.50000030  0.50000030  0.49999993  1
  Ga  Ga1  1  0.50000030  0.50000030  0.00000000  1
  Br  Br2  1  0.00000000  0.00000000  0.74159958  1
  Br  Br3  1  0.00000000  0.00000000  0.25840027  1
