# generated using pymatgen
data_Re2W
_symmetry_space_group_name_H-M   'P 1'
_cell_length_a   5.14429073
_cell_length_b   5.14429073
_cell_length_c   8.38274081
_cell_angle_alpha   90.00000000
_cell_angle_beta   90.00000000
_cell_angle_gamma   119.99993029
_symmetry_Int_Tables_number   1
_chemical_formula_structural   Re2W
_chemical_formula_sum   'Re8 W4'
_cell_volume   192.11796824
_cell_formula_units_Z   4
loop_
 _symmetry_equiv_pos_site_id
 _symmetry_equiv_pos_as_xyz
  1  'x, y, z'
loop_
 _atom_site_type_symbol
 _atom_site_label
 _atom_site_symmetry_multiplicity
 _atom_site_fract_x
 _atom_site_fract_y
 _atom_site_fract_z
 _atom_site_occupancy
  Re  Re0  1  0.00000000  0.00000000  0.00000000  1
  Re  Re1  1  0.00000000  0.00000000  0.49999995  1
  Re  Re2  1  0.82776713  0.65554753  0.24999998  1
  Re  Re3  1  0.34445322  0.17223361  0.24999998  1
  Re  Re4  1  0.82776854  0.17223221  0.24999998  1
  Re  Re5  1  0.17223361  0.34445322  0.74999993  1
  Re  Re6  1  0.65554753  0.82776713  0.74999993  1
  Re  Re7  1  0.17223221  0.82776854  0.74999993  1
  W  W8  1  0.33332903  0.66667171  0.06756291  1
  W  W9  1  0.66667171  0.33332903  0.56756286  1
  W  W10  1  0.66667171  0.33332903  0.93243699  1
  W  W11  1  0.33332903  0.66667171  0.43243704  1
