# generated using pymatgen
data_UCl3
_symmetry_space_group_name_H-M   'P 1'
_cell_length_a   7.41607686
_cell_length_b   7.41486395
_cell_length_c   4.24871888
_cell_angle_alpha   90.00000000
_cell_angle_beta   90.00000000
_cell_angle_gamma   119.99585978
_symmetry_Int_Tables_number   1
_chemical_formula_structural   UCl3
_chemical_formula_sum   'U2 Cl6'
_cell_volume   202.34112211
_cell_formula_units_Z   2
loop_
 _symmetry_equiv_pos_site_id
 _symmetry_equiv_pos_as_xyz
  1  'x, y, z'
loop_
 _atom_site_type_symbol
 _atom_site_label
 _atom_site_symmetry_multiplicity
 _atom_site_fract_x
 _atom_site_fract_y
 _atom_site_fract_z
 _atom_site_occupancy
  U  U0  1  0.66669189  0.33334434  0.25000007  1
  U  U1  1  0.33330869  0.66665656  0.75000020  1
  Cl  Cl2  1  0.29880290  0.91505693  0.25000007  1
  Cl  Cl3  1  0.08493295  0.38370614  0.25000007  1
  Cl  Cl4  1  0.61620795  0.70119302  0.25000007  1
  Cl  Cl5  1  0.70119769  0.08494398  0.75000020  1
  Cl  Cl6  1  0.91506764  0.61629476  0.75000020  1
  Cl  Cl7  1  0.38379264  0.29880789  0.75000020  1
