# generated using pymatgen
data_ZrFeSi
_symmetry_space_group_name_H-M   'P 1'
_cell_length_a   4.00528988
_cell_length_b   6.46856818
_cell_length_c   6.89564701
_cell_angle_alpha   90.00000000
_cell_angle_beta   90.00000000
_cell_angle_gamma   90.00000000
_symmetry_Int_Tables_number   1
_chemical_formula_structural   ZrFeSi
_chemical_formula_sum   'Zr4 Fe4 Si4'
_cell_volume   178.65580627
_cell_formula_units_Z   4
loop_
 _symmetry_equiv_pos_site_id
 _symmetry_equiv_pos_as_xyz
  1  'x, y, z'
loop_
 _atom_site_type_symbol
 _atom_site_label
 _atom_site_symmetry_multiplicity
 _atom_site_fract_x
 _atom_site_fract_y
 _atom_site_fract_z
 _atom_site_occupancy
  Zr  Zr0  1  0.25000001  0.98871730  0.30354553  1
  Zr  Zr1  1  0.75000002  0.51128312  0.80354574  1
  Zr  Zr2  1  0.75000002  0.01128298  0.69645491  1
  Zr  Zr3  1  0.25000001  0.48871716  0.19645469  1
  Fe  Fe4  1  0.25000001  0.15394398  0.93464265  1
  Fe  Fe5  1  0.75000002  0.34605616  0.43464243  1
  Fe  Fe6  1  0.75000002  0.84605630  0.06535779  1
  Fe  Fe7  1  0.25000001  0.65394412  0.56535800  1
  Si  Si8  1  0.25000001  0.29301510  0.60476857  1
  Si  Si9  1  0.75000002  0.20698504  0.10476835  1
  Si  Si10  1  0.75000002  0.70698518  0.39523187  1
  Si  Si11  1  0.25000001  0.79301524  0.89523209  1
