# generated using pymatgen
data_BeBiBr2
_symmetry_space_group_name_H-M   'P 1'
_cell_length_a   3.44936463
_cell_length_b   3.44936463
_cell_length_c   8.10689769
_cell_angle_alpha   90.00000000
_cell_angle_beta   90.00000000
_cell_angle_gamma   90.00000000
_symmetry_Int_Tables_number   1
_chemical_formula_structural   BeBiBr2
_chemical_formula_sum   'Be1 Bi1 Br2'
_cell_volume   96.45681178
_cell_formula_units_Z   1
loop_
 _symmetry_equiv_pos_site_id
 _symmetry_equiv_pos_as_xyz
  1  'x, y, z'
loop_
 _atom_site_type_symbol
 _atom_site_label
 _atom_site_symmetry_multiplicity
 _atom_site_fract_x
 _atom_site_fract_y
 _atom_site_fract_z
 _atom_site_occupancy
  Be  Be0  1  0.00000000  0.00000000  0.47536665  1
  Bi  Bi1  1  0.49999933  0.49999933  0.71797925  1
  Br  Br2  1  0.00000000  0.00000000  0.97383974  1
  Br  Br3  1  0.49999933  0.49999933  0.33281508  1
