# generated using pymatgen
data_BeCr2Ge
_symmetry_space_group_name_H-M   'P 1'
_cell_length_a   3.99825716
_cell_length_b   3.99825716
_cell_length_c   3.99825716
_cell_angle_alpha   120.00074337
_cell_angle_beta   120.00074337
_cell_angle_gamma   89.99871244
_symmetry_Int_Tables_number   1
_chemical_formula_structural   BeCr2Ge
_chemical_formula_sum   'Be1 Cr2 Ge1'
_cell_volume   45.19519799
_cell_formula_units_Z   1
loop_
 _symmetry_equiv_pos_site_id
 _symmetry_equiv_pos_as_xyz
  1  'x, y, z'
loop_
 _atom_site_type_symbol
 _atom_site_label
 _atom_site_symmetry_multiplicity
 _atom_site_fract_x
 _atom_site_fract_y
 _atom_site_fract_z
 _atom_site_occupancy
  Be  Be0  1  0.75000128  0.25000031  0.50000097  1
  Cr  Cr1  1  0.00000000  0.00000000  0.00000000  1
  Cr  Cr2  1  0.25000031  0.75000128  0.50000097  1
  Ge  Ge3  1  0.50000062  0.50000062  0.00000000  1
