# generated using pymatgen
data_Ho5Ge3
_symmetry_space_group_name_H-M   'P 1'
_cell_length_a   8.41907932
_cell_length_b   8.41907932
_cell_length_c   6.34278185
_cell_angle_alpha   90.00000000
_cell_angle_beta   90.00000000
_cell_angle_gamma   120.00006828
_symmetry_Int_Tables_number   1
_chemical_formula_structural   Ho5Ge3
_chemical_formula_sum   'Ho10 Ge6'
_cell_volume   389.34922101
_cell_formula_units_Z   2
loop_
 _symmetry_equiv_pos_site_id
 _symmetry_equiv_pos_as_xyz
  1  'x, y, z'
loop_
 _atom_site_type_symbol
 _atom_site_label
 _atom_site_symmetry_multiplicity
 _atom_site_fract_x
 _atom_site_fract_y
 _atom_site_fract_z
 _atom_site_occupancy
  Ho  Ho0  1  0.33333253  0.66666858  0.00000000  1
  Ho  Ho1  1  0.66666858  0.33333253  0.49999985  1
  Ho  Ho2  1  0.66666858  0.33333253  0.00000000  1
  Ho  Ho3  1  0.33333253  0.66666858  0.49999985  1
  Ho  Ho4  1  0.24134045  0.00000126  0.24999993  1
  Ho  Ho5  1  0.00000126  0.24134045  0.24999993  1
  Ho  Ho6  1  0.75865833  0.75865833  0.24999993  1
  Ho  Ho7  1  0.75866067  0.99999985  0.74999978  1
  Ho  Ho8  1  0.99999985  0.75866067  0.74999978  1
  Ho  Ho9  1  0.24134279  0.24134279  0.74999978  1
  Ge  Ge10  1  0.60626600  1.00000052  0.24999993  1
  Ge  Ge11  1  1.00000052  0.60626600  0.24999993  1
  Ge  Ge12  1  0.39373675  0.39373675  0.24999993  1
  Ge  Ge13  1  0.39373512  0.00000059  0.74999978  1
  Ge  Ge14  1  0.00000059  0.39373512  0.74999978  1
  Ge  Ge15  1  0.60626436  0.60626436  0.74999978  1
