# generated using pymatgen
data_MgBe2Sb
_symmetry_space_group_name_H-M   'P 1'
_cell_length_a   5.16535374
_cell_length_b   5.16535374
_cell_length_c   5.16535374
_cell_angle_alpha   136.06485585
_cell_angle_beta   136.06485585
_cell_angle_gamma   63.88008300
_symmetry_Int_Tables_number   1
_chemical_formula_structural   MgBe2Sb
_chemical_formula_sum   'Mg1 Be2 Sb1'
_cell_volume   65.46323021
_cell_formula_units_Z   1
loop_
 _symmetry_equiv_pos_site_id
 _symmetry_equiv_pos_as_xyz
  1  'x, y, z'
loop_
 _atom_site_type_symbol
 _atom_site_label
 _atom_site_symmetry_multiplicity
 _atom_site_fract_x
 _atom_site_fract_y
 _atom_site_fract_z
 _atom_site_occupancy
  Mg  Mg0  1  0.49999995  0.49999995  0.00000000  1
  Be  Be1  1  0.00000000  0.00000000  0.00000000  1
  Be  Be2  1  0.24999998  0.74999877  0.49999879  1
  Sb  Sb3  1  0.74999877  0.24999998  0.49999879  1
