# generated using pymatgen
data_ScZnAsO
_symmetry_space_group_name_H-M   'P 1'
_cell_length_a   3.85684700
_cell_length_b   3.85684751
_cell_length_c   10.20776728
_cell_angle_alpha   79.12109775
_cell_angle_beta   79.12110354
_cell_angle_gamma   60.00780611
_symmetry_Int_Tables_number   1
_chemical_formula_structural   ScZnAsO
_chemical_formula_sum   'Sc2 Zn2 As2 O2'
_cell_volume   128.34928430
_cell_formula_units_Z   2
loop_
 _symmetry_equiv_pos_site_id
 _symmetry_equiv_pos_as_xyz
  1  'x, y, z'
loop_
 _atom_site_type_symbol
 _atom_site_label
 _atom_site_symmetry_multiplicity
 _atom_site_fract_x
 _atom_site_fract_y
 _atom_site_fract_z
 _atom_site_occupancy
  Sc  Sc0  1  0.62518670  0.62518629  0.12487939  1
  Sc  Sc1  1  0.37481330  0.37481371  0.87512061  1
  As  As2  1  0.10547103  0.10547128  0.68341345  1
  As  As3  1  0.89452897  0.89452872  0.31658655  1
  Zn  Zn4  1  0.80541068  0.80541083  0.58360339  1
  Zn  Zn5  1  0.19458932  0.19458917  0.41639661  1
  O  O6  1  0.69308156  0.69308160  0.92074061  1
  O  O7  1  0.30691844  0.30691840  0.07925939  1
