# generated using pymatgen
data_NaErCoO3
_symmetry_space_group_name_H-M   'P 1'
_cell_length_a   5.51694232
_cell_length_b   5.51694232
_cell_length_c   9.08551700
_cell_angle_alpha   90.00000000
_cell_angle_beta   90.00000000
_cell_angle_gamma   36.17642351
_symmetry_Int_Tables_number   1
_chemical_formula_structural   NaErCoO3
_chemical_formula_sum   'Na2 Er2 Co2 O6'
_cell_volume   163.22995689
_cell_formula_units_Z   2
loop_
 _symmetry_equiv_pos_site_id
 _symmetry_equiv_pos_as_xyz
  1  'x, y, z'
loop_
 _atom_site_type_symbol
 _atom_site_label
 _atom_site_symmetry_multiplicity
 _atom_site_fract_x
 _atom_site_fract_y
 _atom_site_fract_z
 _atom_site_occupancy
  Co  Co0  1  0.45145647  0.45145647  0.25000008  1
  Co  Co1  1  0.54854105  0.54854105  0.75000135  1
  Er  Er2  1  0.00000000  0.00000000  0.00000000  1
  Er  Er3  1  0.00000000  0.00000000  0.50000017  1
  Na  Na4  1  0.72443988  0.72443988  0.25000008  1
  Na  Na5  1  0.27555764  0.27555764  0.75000135  1
  O  O6  1  0.37303789  0.37303789  0.06349556  1
  O  O7  1  0.05769128  0.05769128  0.25000008  1
  O  O8  1  0.37303789  0.37303789  0.43650460  1
  O  O9  1  0.62695963  0.62695963  0.56349573  1
  O  O10  1  0.94230624  0.94230624  0.75000135  1
  O  O11  1  0.62695963  0.62695963  0.93650477  1
