# generated using pymatgen
data_Rb2BaCd
_symmetry_space_group_name_H-M   'P 1'
_cell_length_a   4.50048227
_cell_length_b   4.50048228
_cell_length_c   14.67267360
_cell_angle_alpha   81.17814825
_cell_angle_beta   81.17814826
_cell_angle_gamma   59.99999998
_symmetry_Int_Tables_number   1
_chemical_formula_structural   Rb2BaCd
_chemical_formula_sum   'Rb2 Ba1 Cd1'
_cell_volume   253.30231660
_cell_formula_units_Z   1
loop_
 _symmetry_equiv_pos_site_id
 _symmetry_equiv_pos_as_xyz
  1  'x, y, z'
loop_
 _atom_site_type_symbol
 _atom_site_label
 _atom_site_symmetry_multiplicity
 _atom_site_fract_x
 _atom_site_fract_y
 _atom_site_fract_z
 _atom_site_occupancy
  Ba  Ba0  1  0.00000000  0.00000000  0.00000000  1
  Rb  Rb1  1  0.10148920  0.10148920  0.69553340  1
  Rb  Rb2  1  0.89851080  0.89851080  0.30446660  1
  Cd  Cd3  1  0.50000000  0.50000000  0.50000000  1
