# generated using pymatgen
data_Sr3Y(BO3)3
_symmetry_space_group_name_H-M   'P 1'
_cell_length_a   7.92639386
_cell_length_b   7.92639386
_cell_length_c   7.92639360
_cell_angle_alpha   105.01777342
_cell_angle_beta   105.01777332
_cell_angle_gamma   105.01777768
_symmetry_Int_Tables_number   1
_chemical_formula_structural   Sr3Y(BO3)3
_chemical_formula_sum   'Sr6 Y2 B6 O18'
_cell_volume   435.22130925
_cell_formula_units_Z   2
loop_
 _symmetry_equiv_pos_site_id
 _symmetry_equiv_pos_as_xyz
  1  'x, y, z'
loop_
 _atom_site_type_symbol
 _atom_site_label
 _atom_site_symmetry_multiplicity
 _atom_site_fract_x
 _atom_site_fract_y
 _atom_site_fract_z
 _atom_site_occupancy
  Sr  Sr0  1  0.36019557  0.73526111  0.86117928  1
  Sr  Sr1  1  0.86117928  0.36019557  0.73526111  1
  Sr  Sr2  1  0.73526111  0.86117928  0.36019557  1
  Sr  Sr3  1  0.63980443  0.26473889  0.13882072  1
  Sr  Sr4  1  0.13882072  0.63980443  0.26473889  1
  Sr  Sr5  1  0.26473889  0.13882072  0.63980443  1
  Y  Y6  1  0.50000000  0.50000000  0.50000000  1
  Y  Y7  1  0.00000000  0.00000000  0.00000000  1
  B  B8  1  0.70751848  0.61103781  0.95999956  1
  B  B9  1  0.95999956  0.70751848  0.61103781  1
  B  B10  1  0.61103781  0.95999956  0.70751848  1
  B  B11  1  0.04000044  0.29248152  0.38896219  1
  B  B12  1  0.38896219  0.04000044  0.29248152  1
  B  B13  1  0.29248152  0.38896219  0.04000044  1
  O  O14  1  0.04494202  0.81199995  0.52232276  1
  O  O15  1  0.52232276  0.04494202  0.81199995  1
  O  O16  1  0.44545231  0.49326937  0.20479622  1
  O  O17  1  0.49326937  0.20479622  0.44545231  1
  O  O18  1  0.20479622  0.44545231  0.49326937  1
  O  O19  1  0.79520378  0.55454769  0.50673063  1
  O  O20  1  0.55454769  0.50673063  0.79520378  1
  O  O21  1  0.50673063  0.79520378  0.55454769  1
  O  O22  1  0.25235555  0.19712883  0.96789308  1
  O  O23  1  0.19712883  0.96789308  0.25235555  1
  O  O24  1  0.96789308  0.25235555  0.19712883  1
  O  O25  1  0.74764445  0.80287117  0.03210692  1
  O  O26  1  0.80287117  0.03210692  0.74764445  1
  O  O27  1  0.03210692  0.74764445  0.80287117  1
  O  O28  1  0.18800005  0.47767724  0.95505798  1
  O  O29  1  0.47767724  0.95505798  0.18800005  1
  O  O30  1  0.95505798  0.18800005  0.47767724  1
  O  O31  1  0.81199995  0.52232276  0.04494202  1
