# generated using pymatgen
data_Rb2CoBI6
_symmetry_space_group_name_H-M   'P 1'
_cell_length_a   7.80088617
_cell_length_b   7.80088617
_cell_length_c   7.81241863
_cell_angle_alpha   60.04881926
_cell_angle_beta   60.04881926
_cell_angle_gamma   90.00000000
_symmetry_Int_Tables_number   1
_chemical_formula_structural   Rb2CoBI6
_chemical_formula_sum   'Rb2 Co1 B1 I6'
_cell_volume   336.66507519
_cell_formula_units_Z   1
loop_
 _symmetry_equiv_pos_site_id
 _symmetry_equiv_pos_as_xyz
  1  'x, y, z'
loop_
 _atom_site_type_symbol
 _atom_site_label
 _atom_site_symmetry_multiplicity
 _atom_site_fract_x
 _atom_site_fract_y
 _atom_site_fract_z
 _atom_site_occupancy
  I  I0  1  0.24205912  0.24205912  0.51588176  1
  I  I1  1  0.75794088  0.75794088  0.48411824  1
  I  I2  1  0.24335258  0.24335258  0.00000000  1
  I  I3  1  0.75664742  0.75664742  0.00000000  1
  I  I4  1  0.75664742  0.24335258  0.00000000  1
  I  I5  1  0.24335258  0.75664742  0.00000000  1
  B  B6  1  0.50000000  0.50000000  0.00000000  1
  Co  Co7  1  0.00000000  0.00000000  0.00000000  1
  Rb  Rb8  1  0.75000000  0.25000000  0.50000000  1
  Rb  Rb9  1  0.25000000  0.75000000  0.50000000  1
