# generated using pymatgen
data_TlFe(TcO4)2
_symmetry_space_group_name_H-M   'P 1'
_cell_length_a   5.52490580
_cell_length_b   5.52490580
_cell_length_c   8.08610933
_cell_angle_alpha   87.66288148
_cell_angle_beta   87.66288148
_cell_angle_gamma   63.90982260
_symmetry_Int_Tables_number   1
_chemical_formula_structural   TlFe(TcO4)2
_chemical_formula_sum   'Tl1 Fe1 Tc2 O8'
_cell_volume   221.41820133
_cell_formula_units_Z   1
loop_
 _symmetry_equiv_pos_site_id
 _symmetry_equiv_pos_as_xyz
  1  'x, y, z'
loop_
 _atom_site_type_symbol
 _atom_site_label
 _atom_site_symmetry_multiplicity
 _atom_site_fract_x
 _atom_site_fract_y
 _atom_site_fract_z
 _atom_site_occupancy
  Tl  Tl0  1  -0.00000000  0.00000000  0.50000000  1
  Fe  Fe1  1  0.00000000  0.00000000  0.00000000  1
  Tc  Tc2  1  0.63675662  0.63675662  0.21299758  1
  Tc  Tc3  1  0.36324338  0.36324338  0.78700242  1
  O  O4  1  0.71847464  0.21665504  0.81463655  1
  O  O5  1  0.78277278  0.78277278  0.06885129  1
  O  O6  1  0.69455793  0.69455793  0.41492790  1
  O  O7  1  0.30544207  0.30544207  0.58507210  1
  O  O8  1  0.21722722  0.21722722  0.93114871  1
  O  O9  1  0.21665504  0.71847464  0.81463655  1
  O  O10  1  0.78334496  0.28152536  0.18536345  1
  O  O11  1  0.28152536  0.78334496  0.18536345  1
