# generated using pymatgen
data_Dy6TmPd2
_symmetry_space_group_name_H-M   'P 1'
_cell_length_a   3.67811216
_cell_length_b   8.22065931
_cell_length_c   8.62669403
_cell_angle_alpha   79.10358588
_cell_angle_beta   77.69109865
_cell_angle_gamma   77.07287909
_symmetry_Int_Tables_number   1
_chemical_formula_structural   Dy6TmPd2
_chemical_formula_sum   'Dy6 Tm1 Pd2'
_cell_volume   245.63466007
_cell_formula_units_Z   1
loop_
 _symmetry_equiv_pos_site_id
 _symmetry_equiv_pos_as_xyz
  1  'x, y, z'
loop_
 _atom_site_type_symbol
 _atom_site_label
 _atom_site_symmetry_multiplicity
 _atom_site_fract_x
 _atom_site_fract_y
 _atom_site_fract_z
 _atom_site_occupancy
  Dy  Dy0  1  0.03249369  0.12521864  0.80979398  1
  Dy  Dy1  1  0.28695888  0.31645964  0.10962361  1
  Dy  Dy2  1  0.71304112  0.68354036  0.89037639  1
  Dy  Dy3  1  0.30673337  0.83183814  0.55469411  1
  Dy  Dy4  1  0.69326663  0.16816186  0.44530589  1
  Dy  Dy5  1  0.96750631  0.87478136  0.19020602  1
  Tm  Tm6  1  0.00000000  0.50000000  0.50000000  1
  Pd  Pd7  1  0.40710248  0.42354464  0.76225041  1
  Pd  Pd8  1  0.59289752  0.57645536  0.23774959  1
