# generated using pymatgen
data_Li2Cr3NiO8
_symmetry_space_group_name_H-M   'P 1'
_cell_length_a   5.94492211
_cell_length_b   5.94492211
_cell_length_c   5.94492211
_cell_angle_alpha   59.06354789
_cell_angle_beta   59.06354789
_cell_angle_gamma   59.06354783
_symmetry_Int_Tables_number   1
_chemical_formula_structural   Li2Cr3NiO8
_chemical_formula_sum   'Li2 Cr3 Ni1 O8'
_cell_volume   145.39504017
_cell_formula_units_Z   1
loop_
 _symmetry_equiv_pos_site_id
 _symmetry_equiv_pos_as_xyz
  1  'x, y, z'
loop_
 _atom_site_type_symbol
 _atom_site_label
 _atom_site_symmetry_multiplicity
 _atom_site_fract_x
 _atom_site_fract_y
 _atom_site_fract_z
 _atom_site_occupancy
  Li  Li0  1  0.12304811  0.12304811  0.12304811  1
  Li  Li1  1  0.50094010  0.50094010  0.50094010  1
  Cr  Cr2  1  0.49824196  0.00597688  0.49824196  1
  Cr  Cr3  1  0.49824196  0.49824196  0.00597688  1
  Cr  Cr4  1  0.00597688  0.49824196  0.49824196  1
  Ni  Ni5  1  0.87818372  0.87818372  0.87818372  1
  O  O6  1  0.25987150  0.25987150  0.25987150  1
  O  O7  1  0.70752862  0.24953398  0.24953398  1
  O  O8  1  0.24953398  0.24953398  0.70752862  1
  O  O9  1  0.24953398  0.70752862  0.24953398  1
  O  O10  1  0.75026394  0.28805937  0.75026394  1
  O  O11  1  0.75026394  0.75026394  0.28805937  1
  O  O12  1  0.28805937  0.75026394  0.75026394  1
  O  O13  1  0.74030795  0.74030795  0.74030795  1
