# generated using pymatgen
data_La2Dy7
_symmetry_space_group_name_H-M   'P 1'
_cell_length_a   6.22360228
_cell_length_b   6.22360208
_cell_length_c   8.77602301
_cell_angle_alpha   90.00000000
_cell_angle_beta   90.00000000
_cell_angle_gamma   120.00000105
_symmetry_Int_Tables_number   1
_chemical_formula_structural   La2Dy7
_chemical_formula_sum   'La2 Dy7'
_cell_volume   294.38252706
_cell_formula_units_Z   1
loop_
 _symmetry_equiv_pos_site_id
 _symmetry_equiv_pos_as_xyz
  1  'x, y, z'
loop_
 _atom_site_type_symbol
 _atom_site_label
 _atom_site_symmetry_multiplicity
 _atom_site_fract_x
 _atom_site_fract_y
 _atom_site_fract_z
 _atom_site_occupancy
  La  La0  1  0.33333300  0.66666700  0.00000000  1
  La  La1  1  0.66666700  0.33333300  0.00000000  1
  Dy  Dy2  1  0.00000000  0.00000000  0.00000000  1
  Dy  Dy3  1  0.66829414  0.00000000  0.33784477  1
  Dy  Dy4  1  1.00000000  0.66829414  0.33784477  1
  Dy  Dy5  1  0.33170586  0.33170586  0.33784477  1
  Dy  Dy6  1  0.00000000  0.33170586  0.66215523  1
  Dy  Dy7  1  0.33170586  0.00000000  0.66215523  1
  Dy  Dy8  1  0.66829414  0.66829414  0.66215523  1
