# generated using pymatgen
data_RbNp2
_symmetry_space_group_name_H-M   'P 1'
_cell_length_a   3.58810122
_cell_length_b   3.58791304
_cell_length_c   9.02807828
_cell_angle_alpha   101.76107281
_cell_angle_beta   101.75325325
_cell_angle_gamma   60.03974496
_symmetry_Int_Tables_number   1
_chemical_formula_structural   RbNp2
_chemical_formula_sum   'Rb1 Np2'
_cell_volume   97.86658857
_cell_formula_units_Z   1
loop_
 _symmetry_equiv_pos_site_id
 _symmetry_equiv_pos_as_xyz
  1  'x, y, z'
loop_
 _atom_site_type_symbol
 _atom_site_label
 _atom_site_symmetry_multiplicity
 _atom_site_fract_x
 _atom_site_fract_y
 _atom_site_fract_z
 _atom_site_occupancy
  Np  Np0  1  0.69123523  0.69128025  0.57182735  1
  Np  Np1  1  0.30876477  0.30871975  0.42817265  1
  Rb  Rb2  1  0.50000000  0.50000000  -0.00000000  1
