# generated using pymatgen
data_Ba(InSe)2
_symmetry_space_group_name_H-M   'P 1'
_cell_length_a   8.64554379
_cell_length_b   8.64554379
_cell_length_c   4.41214484
_cell_angle_alpha   90.00000000
_cell_angle_beta   90.00000000
_cell_angle_gamma   90.00000000
_symmetry_Int_Tables_number   1
_chemical_formula_structural   Ba(InSe)2
_chemical_formula_sum   'Ba2 In4 Se4'
_cell_volume   329.78765193
_cell_formula_units_Z   2
loop_
 _symmetry_equiv_pos_site_id
 _symmetry_equiv_pos_as_xyz
  1  'x, y, z'
loop_
 _atom_site_type_symbol
 _atom_site_label
 _atom_site_symmetry_multiplicity
 _atom_site_fract_x
 _atom_site_fract_y
 _atom_site_fract_z
 _atom_site_occupancy
  Ba  Ba0  1  0.00000000  0.00000000  0.00000000  1
  Ba  Ba1  1  0.50000000  0.50000000  0.00000000  1
  Se  Se2  1  0.31708701  0.81708701  0.00000000  1
  Se  Se3  1  0.81708701  0.68291299  0.00000000  1
  Se  Se4  1  0.68291299  0.18291299  0.00000000  1
  Se  Se5  1  0.18291299  0.31708701  0.00000000  1
  In  In6  1  0.12593622  0.62593622  0.50000000  1
  In  In7  1  0.62593622  0.87406378  0.50000000  1
  In  In8  1  0.87406378  0.37406378  0.50000000  1
  In  In9  1  0.37406378  0.12593622  0.50000000  1
