# generated using pymatgen
data_Li2GaGeS4
_symmetry_space_group_name_H-M   'P 1'
_cell_length_a   6.20161875
_cell_length_b   6.85421483
_cell_length_c   8.04527799
_cell_angle_alpha   90.00000000
_cell_angle_beta   90.00000000
_cell_angle_gamma   90.00000000
_symmetry_Int_Tables_number   1
_chemical_formula_structural   Li2GaGeS4
_chemical_formula_sum   'Li4 Ga2 Ge2 S8'
_cell_volume   341.98245946
_cell_formula_units_Z   2
loop_
 _symmetry_equiv_pos_site_id
 _symmetry_equiv_pos_as_xyz
  1  'x, y, z'
loop_
 _atom_site_type_symbol
 _atom_site_label
 _atom_site_symmetry_multiplicity
 _atom_site_fract_x
 _atom_site_fract_y
 _atom_site_fract_z
 _atom_site_occupancy
  Li  Li0  1  0.49392913  0.32795807  0.25005441  1
  Li  Li1  1  0.49392913  0.32795807  0.74994559  1
  Li  Li2  1  0.99392913  0.67204193  0.75005441  1
  Li  Li3  1  0.99392913  0.67204193  0.24994559  1
  Ga  Ga4  1  0.99936802  0.15701832  0.50000000  1
  Ga  Ga5  1  0.49936802  0.84298168  0.00000000  1
  Ge  Ge6  1  0.48929842  0.82831603  0.50000000  1
  Ge  Ge7  1  0.98929842  0.17168397  0.00000000  1
  S  S8  1  0.37156427  0.15821294  0.00000000  1
  S  S9  1  0.87156427  0.84178706  0.50000000  1
  S  S10  1  0.37396456  0.15482292  0.50000000  1
  S  S11  1  0.87396456  0.84517708  0.00000000  1
  S  S12  1  0.38894523  0.67742742  0.76597314  1
  S  S13  1  0.88894523  0.32257258  0.26597314  1
  S  S14  1  0.88894523  0.32257258  0.73402686  1
  S  S15  1  0.38894523  0.67742742  0.23402686  1
