# generated using pymatgen
data_YThGaAu
_symmetry_space_group_name_H-M   'P 1'
_cell_length_a   4.05481024
_cell_length_b   4.47569156
_cell_length_c   5.94334672
_cell_angle_alpha   90.00000000
_cell_angle_beta   109.94523480
_cell_angle_gamma   90.00000000
_symmetry_Int_Tables_number   1
_chemical_formula_structural   YThGaAu
_chemical_formula_sum   'Y1 Th1 Ga1 Au1'
_cell_volume   101.39077243
_cell_formula_units_Z   1
loop_
 _symmetry_equiv_pos_site_id
 _symmetry_equiv_pos_as_xyz
  1  'x, y, z'
loop_
 _atom_site_type_symbol
 _atom_site_label
 _atom_site_symmetry_multiplicity
 _atom_site_fract_x
 _atom_site_fract_y
 _atom_site_fract_z
 _atom_site_occupancy
  Y  Y0  1  0.13875170  0.00000000  0.27750339  1
  Th  Th1  1  0.85750131  0.50000000  0.71500262  1
  Ga  Ga2  1  0.42209764  0.00000000  0.84419528  1
  Au  Au3  1  0.58165035  0.50000000  0.16330071  1
