# generated using pymatgen
data_CeGaIr
_symmetry_space_group_name_H-M   'P 1'
_cell_length_a   3.62273897
_cell_length_b   4.42246032
_cell_length_c   4.42246032
_cell_angle_alpha   119.99999996
_cell_angle_beta   90.00000000
_cell_angle_gamma   90.00000000
_symmetry_Int_Tables_number   1
_chemical_formula_structural   CeGaIr
_chemical_formula_sum   'Ce1 Ga1 Ir1'
_cell_volume   61.36144314
_cell_formula_units_Z   1
loop_
 _symmetry_equiv_pos_site_id
 _symmetry_equiv_pos_as_xyz
  1  'x, y, z'
loop_
 _atom_site_type_symbol
 _atom_site_label
 _atom_site_symmetry_multiplicity
 _atom_site_fract_x
 _atom_site_fract_y
 _atom_site_fract_z
 _atom_site_occupancy
  Ir  Ir0  1  0.16669836  0.00000000  0.00000000  1
  Ga  Ga1  1  0.16669098  0.66666667  0.33333333  1
  Ce  Ce2  1  0.66661067  0.33333333  0.66666667  1
