# generated using pymatgen
data_Th3Ga6Ir5
_symmetry_space_group_name_H-M   'P 1'
_cell_length_a   4.23711305
_cell_length_b   9.58499893
_cell_length_c   12.94479768
_cell_angle_alpha   90.00000000
_cell_angle_beta   90.00000000
_cell_angle_gamma   90.00000000
_symmetry_Int_Tables_number   1
_chemical_formula_structural   Th3Ga6Ir5
_chemical_formula_sum   'Th6 Ga12 Ir10'
_cell_volume   525.72349607
_cell_formula_units_Z   2
loop_
 _symmetry_equiv_pos_site_id
 _symmetry_equiv_pos_as_xyz
  1  'x, y, z'
loop_
 _atom_site_type_symbol
 _atom_site_label
 _atom_site_symmetry_multiplicity
 _atom_site_fract_x
 _atom_site_fract_y
 _atom_site_fract_z
 _atom_site_occupancy
  Th  Th0  1  0.00000000  0.24855951  0.69665538  1
  Th  Th1  1  0.50000000  0.75144049  0.19665538  1
  Th  Th2  1  0.50000000  0.75144049  0.80334462  1
  Th  Th3  1  0.00000000  0.26680768  0.00000000  1
  Th  Th4  1  0.50000000  0.73319232  0.50000000  1
  Th  Th5  1  0.00000000  0.24855951  0.30334462  1
  Ga  Ga6  1  0.00000000  0.98388546  0.84950244  1
  Ga  Ga7  1  0.50000000  0.01611454  0.65049756  1
  Ga  Ga8  1  0.50000000  0.41562336  0.81935577  1
  Ga  Ga9  1  0.50000000  0.58106882  0.00000000  1
  Ga  Ga10  1  0.00000000  0.41893118  0.50000000  1
  Ga  Ga11  1  0.00000000  0.58437664  0.68064423  1
  Ga  Ga12  1  0.00000000  0.58437664  0.31935577  1
  Ga  Ga13  1  0.50000000  0.96570280  0.00000000  1
  Ga  Ga14  1  0.00000000  0.98388546  0.15049756  1
  Ga  Ga15  1  0.50000000  0.41562336  0.18064423  1
  Ga  Ga16  1  0.00000000  0.03429720  0.50000000  1
  Ga  Ga17  1  0.50000000  0.01611454  0.34950244  1
  Ir  Ir18  1  0.00000000  0.54351007  0.88828409  1
  Ir  Ir19  1  0.00000000  0.85892333  0.65546474  1
  Ir  Ir20  1  0.00000000  0.79695565  0.00000000  1
  Ir  Ir21  1  0.50000000  0.45648993  0.61171591  1
  Ir  Ir22  1  0.50000000  0.20304435  0.50000000  1
  Ir  Ir23  1  0.00000000  0.54351007  0.11171591  1
  Ir  Ir24  1  0.50000000  0.45648993  0.38828409  1
  Ir  Ir25  1  0.00000000  0.85892333  0.34453526  1
  Ir  Ir26  1  0.50000000  0.14107667  0.84453526  1
  Ir  Ir27  1  0.50000000  0.14107667  0.15546474  1
