# generated using pymatgen
data_Ti6InPd12
_symmetry_space_group_name_H-M   'P 1'
_cell_length_a   7.44000208
_cell_length_b   7.44000208
_cell_length_c   7.44000209
_cell_angle_alpha   110.87235763
_cell_angle_beta   110.87235763
_cell_angle_gamma   110.87235768
_symmetry_Int_Tables_number   1
_chemical_formula_structural   Ti6InPd12
_chemical_formula_sum   'Ti6 In1 Pd12'
_cell_volume   299.45632986
_cell_formula_units_Z   1
loop_
 _symmetry_equiv_pos_site_id
 _symmetry_equiv_pos_as_xyz
  1  'x, y, z'
loop_
 _atom_site_type_symbol
 _atom_site_label
 _atom_site_symmetry_multiplicity
 _atom_site_fract_x
 _atom_site_fract_y
 _atom_site_fract_z
 _atom_site_occupancy
  Ti  Ti0  1  0.63187239  0.91941859  0.41133935  1
  Ti  Ti1  1  0.58866065  0.36812761  0.08058141  1
  Ti  Ti2  1  0.08058141  0.58866065  0.36812761  1
  Ti  Ti3  1  0.36812761  0.08058141  0.58866065  1
  Ti  Ti4  1  0.41133935  0.63187239  0.91941859  1
  Ti  Ti5  1  0.91941859  0.41133935  0.63187239  1
  In  In6  1  0.00000000  0.00000000  0.00000000  1
  Pd  Pd7  1  0.79475734  0.66782571  0.52122232  1
  Pd  Pd8  1  0.52122232  0.79475734  0.66782571  1
  Pd  Pd9  1  0.66782571  0.52122232  0.79475734  1
  Pd  Pd10  1  0.20524266  0.33217429  0.47877768  1
  Pd  Pd11  1  0.47877768  0.20524266  0.33217429  1
  Pd  Pd12  1  0.33217429  0.47877768  0.20524266  1
  Pd  Pd13  1  0.88728271  0.83124923  0.26431718  1
  Pd  Pd14  1  0.16875077  0.73568282  0.11271729  1
  Pd  Pd15  1  0.73568282  0.11271729  0.16875077  1
  Pd  Pd16  1  0.11271729  0.16875077  0.73568282  1
  Pd  Pd17  1  0.83124923  0.26431718  0.88728271  1
  Pd  Pd18  1  0.26431718  0.88728271  0.83124923  1
