# generated using pymatgen
data_PaZn(FeGe2)2
_symmetry_space_group_name_H-M   'P 1'
_cell_length_a   3.63756867
_cell_length_b   3.63756867
_cell_length_c   10.66022356
_cell_angle_alpha   90.00000000
_cell_angle_beta   90.00000000
_cell_angle_gamma   90.00000000
_symmetry_Int_Tables_number   1
_chemical_formula_structural   PaZn(FeGe2)2
_chemical_formula_sum   'Pa1 Zn1 Fe2 Ge4'
_cell_volume   141.05507426
_cell_formula_units_Z   1
loop_
 _symmetry_equiv_pos_site_id
 _symmetry_equiv_pos_as_xyz
  1  'x, y, z'
loop_
 _atom_site_type_symbol
 _atom_site_label
 _atom_site_symmetry_multiplicity
 _atom_site_fract_x
 _atom_site_fract_y
 _atom_site_fract_z
 _atom_site_occupancy
  Pa  Pa0  1  0.00000000  0.00000000  0.00000000  1
  Zn  Zn1  1  0.00000000  0.00000000  0.50000000  1
  Fe  Fe2  1  0.50000000  0.50000000  0.39272104  1
  Fe  Fe3  1  0.50000000  0.50000000  0.60727896  1
  Ge  Ge4  1  0.00000000  0.50000000  0.22897809  1
  Ge  Ge5  1  0.50000000  0.00000000  0.77102191  1
  Ge  Ge6  1  0.50000000  0.00000000  0.22897809  1
  Ge  Ge7  1  0.00000000  0.50000000  0.77102191  1
