# generated using pymatgen
data_ErTlAu
_symmetry_space_group_name_H-M   'P 1'
_cell_length_a   4.81015818
_cell_length_b   4.80913027
_cell_length_c   4.80899288
_cell_angle_alpha   59.98664934
_cell_angle_beta   59.99198387
_cell_angle_gamma   59.99292925
_symmetry_Int_Tables_number   1
_chemical_formula_structural   ErTlAu
_chemical_formula_sum   'Er1 Tl1 Au1'
_cell_volume   78.64510197
_cell_formula_units_Z   1
loop_
 _symmetry_equiv_pos_site_id
 _symmetry_equiv_pos_as_xyz
  1  'x, y, z'
loop_
 _atom_site_type_symbol
 _atom_site_label
 _atom_site_symmetry_multiplicity
 _atom_site_fract_x
 _atom_site_fract_y
 _atom_site_fract_z
 _atom_site_occupancy
  Tl  Tl0  1  0.99997223  0.00002254  0.00003300  1
  Au  Au1  1  0.25000001  0.25000048  0.24999950  1
  Er  Er2  1  0.50002776  0.49997698  0.49996750  1
