# generated using pymatgen
data_AlCuP2
_symmetry_space_group_name_H-M   'P 1'
_cell_length_a   3.07409836
_cell_length_b   3.07409836
_cell_length_c   6.23269589
_cell_angle_alpha   90.00000000
_cell_angle_beta   90.00000000
_cell_angle_gamma   90.00000000
_symmetry_Int_Tables_number   1
_chemical_formula_structural   AlCuP2
_chemical_formula_sum   'Al1 Cu1 P2'
_cell_volume   58.89947931
_cell_formula_units_Z   1
loop_
 _symmetry_equiv_pos_site_id
 _symmetry_equiv_pos_as_xyz
  1  'x, y, z'
loop_
 _atom_site_type_symbol
 _atom_site_label
 _atom_site_symmetry_multiplicity
 _atom_site_fract_x
 _atom_site_fract_y
 _atom_site_fract_z
 _atom_site_occupancy
  P  P0  1  0.00000000  0.00000000  0.02133855  1
  P  P1  1  0.50000000  0.50000000  0.18667638  1
  Al  Al2  1  0.00000000  0.00000000  0.53209058  1
  Cu  Cu3  1  0.50000000  0.50000000  0.75989449  1
