# generated using pymatgen
data_Sm2BC3
_symmetry_space_group_name_H-M   'P 1'
_cell_length_a   5.25641141
_cell_length_b   5.25641142
_cell_length_c   6.62207329
_cell_angle_alpha   110.86183683
_cell_angle_beta   110.86183691
_cell_angle_gamma   95.89609214
_symmetry_Int_Tables_number   1
_chemical_formula_structural   Sm2BC3
_chemical_formula_sum   'Sm4 B2 C6'
_cell_volume   154.14422574
_cell_formula_units_Z   2
loop_
 _symmetry_equiv_pos_site_id
 _symmetry_equiv_pos_as_xyz
  1  'x, y, z'
loop_
 _atom_site_type_symbol
 _atom_site_label
 _atom_site_symmetry_multiplicity
 _atom_site_fract_x
 _atom_site_fract_y
 _atom_site_fract_z
 _atom_site_occupancy
  Sm  Sm0  1  0.25000000  0.75000000  0.50000000  1
  Sm  Sm1  1  0.79262426  0.79262426  1.00000000  1
  Sm  Sm2  1  0.75000000  0.25000000  0.50000000  1
  Sm  Sm3  1  0.20737574  0.20737574  0.00000000  1
  B  B4  1  0.65551680  0.65551680  0.31103460  1
  B  B5  1  0.34448320  0.34448320  0.68896540  1
  C  C6  1  0.39678021  0.73074573  0.12752594  1
  C  C7  1  0.26925427  0.60321979  0.87247406  1
  C  C8  1  0.60321979  0.26925427  0.87247406  1
  C  C9  1  0.73074573  0.39678021  0.12752594  1
  C  C10  1  0.20785544  0.20785544  0.41571187  1
  C  C11  1  0.79214456  0.79214456  0.58428813  1
