# generated using pymatgen
data_ScTa2Cu
_symmetry_space_group_name_H-M   'P 1'
_cell_length_a   5.67396591
_cell_length_b   5.67396591
_cell_length_c   4.51173451
_cell_angle_alpha   66.63167189
_cell_angle_beta   66.63167193
_cell_angle_gamma   32.75059472
_symmetry_Int_Tables_number   1
_chemical_formula_structural   ScTa2Cu
_chemical_formula_sum   'Sc1 Ta2 Cu1'
_cell_volume   71.54876032
_cell_formula_units_Z   1
loop_
 _symmetry_equiv_pos_site_id
 _symmetry_equiv_pos_as_xyz
  1  'x, y, z'
loop_
 _atom_site_type_symbol
 _atom_site_label
 _atom_site_symmetry_multiplicity
 _atom_site_fract_x
 _atom_site_fract_y
 _atom_site_fract_z
 _atom_site_occupancy
  Cu  Cu0  1  0.75000000  0.75000000  0.75000000  1
  Sc  Sc1  1  0.25000000  0.25000000  0.25000000  1
  Ta  Ta2  1  0.02064572  0.02064572  0.97939449  1
  Ta  Ta3  1  0.47935428  0.47935428  0.52060551  1
