# generated using pymatgen
data_CsNp4(CuSe4)3
_symmetry_space_group_name_H-M   'P 1'
_cell_length_a   8.86132623
_cell_length_b   8.86132622
_cell_length_c   8.86132622
_cell_angle_alpha   109.47122061
_cell_angle_beta   109.47122066
_cell_angle_gamma   109.47122066
_symmetry_Int_Tables_number   1
_chemical_formula_structural   CsNp4(CuSe4)3
_chemical_formula_sum   'Cs1 Np4 Cu3 Se12'
_cell_volume   535.64158246
_cell_formula_units_Z   1
loop_
 _symmetry_equiv_pos_site_id
 _symmetry_equiv_pos_as_xyz
  1  'x, y, z'
loop_
 _atom_site_type_symbol
 _atom_site_label
 _atom_site_symmetry_multiplicity
 _atom_site_fract_x
 _atom_site_fract_y
 _atom_site_fract_z
 _atom_site_occupancy
  Cs  Cs0  1  0.00000000  0.00000000  0.00000000  1
  Np  Np1  1  0.50000000  0.00000000  0.00000000  1
  Np  Np2  1  0.50000000  0.50000000  0.50000000  1
  Np  Np3  1  0.00000000  0.50000000  0.00000000  1
  Np  Np4  1  0.00000000  0.00000000  0.50000000  1
  Cu  Cu5  1  0.00000000  0.50000000  0.50000000  1
  Cu  Cu6  1  0.50000000  0.50000000  0.00000000  1
  Cu  Cu7  1  0.50000000  0.00000000  0.50000000  1
  Se  Se8  1  0.32449937  0.83161346  0.15611283  1
  Se  Se9  1  0.67550063  0.16838654  0.84388717  1
  Se  Se10  1  0.67550063  0.83161346  0.50711410  1
  Se  Se11  1  0.84388717  0.67550063  0.16838654  1
  Se  Se12  1  0.83161346  0.15611283  0.32449937  1
  Se  Se13  1  0.16838654  0.49288590  0.32449937  1
  Se  Se14  1  0.49288590  0.32449937  0.16838654  1
  Se  Se15  1  0.16838654  0.84388717  0.67550063  1
  Se  Se16  1  0.32449937  0.16838654  0.49288590  1
  Se  Se17  1  0.15611283  0.32449937  0.83161346  1
  Se  Se18  1  0.83161346  0.50711410  0.67550063  1
  Se  Se19  1  0.50711410  0.67550063  0.83161346  1
