# generated using pymatgen
data_Hf4ZrAl2
_symmetry_space_group_name_H-M   'P 1'
_cell_length_a   7.43055678
_cell_length_b   5.88866087
_cell_length_c   7.65682623
_cell_angle_alpha   90.00000000
_cell_angle_beta   119.26739091
_cell_angle_gamma   90.00000000
_symmetry_Int_Tables_number   1
_chemical_formula_structural   Hf4ZrAl2
_chemical_formula_sum   'Hf8 Zr2 Al4'
_cell_volume   292.26465064
_cell_formula_units_Z   2
loop_
 _symmetry_equiv_pos_site_id
 _symmetry_equiv_pos_as_xyz
  1  'x, y, z'
loop_
 _atom_site_type_symbol
 _atom_site_label
 _atom_site_symmetry_multiplicity
 _atom_site_fract_x
 _atom_site_fract_y
 _atom_site_fract_z
 _atom_site_occupancy
  Hf  Hf0  1  0.57946331  0.49896635  0.22963089  1
  Hf  Hf1  1  0.13247865  0.75000000  0.91591902  1
  Hf  Hf2  1  0.86752135  0.25000000  0.08408098  1
  Hf  Hf3  1  0.57946331  0.00103365  0.22963089  1
  Hf  Hf4  1  0.02707739  0.25000000  0.51611613  1
  Hf  Hf5  1  0.42053669  0.99896635  0.77036911  1
  Hf  Hf6  1  0.42053669  0.50103365  0.77036911  1
  Hf  Hf7  1  0.97292261  0.75000000  0.48388387  1
  Zr  Zr8  1  0.25301764  0.75000000  0.33707854  1
  Zr  Zr9  1  0.74698236  0.25000000  0.66292146  1
  Al  Al10  1  0.80492565  0.75000000  0.04302338  1
  Al  Al11  1  0.19507435  0.25000000  0.95697662  1
  Al  Al12  1  0.31763140  0.25000000  0.37482464  1
  Al  Al13  1  0.68236860  0.75000000  0.62517536  1
