# generated using pymatgen
data_AcYTl6
_symmetry_space_group_name_H-M   'P 1'
_cell_length_a   4.90182679
_cell_length_b   4.90182776
_cell_length_c   9.75679322
_cell_angle_alpha   90.00000000
_cell_angle_beta   90.00000000
_cell_angle_gamma   90.00000000
_symmetry_Int_Tables_number   1
_chemical_formula_structural   AcYTl6
_chemical_formula_sum   'Ac1 Y1 Tl6'
_cell_volume   234.43535556
_cell_formula_units_Z   1
loop_
 _symmetry_equiv_pos_site_id
 _symmetry_equiv_pos_as_xyz
  1  'x, y, z'
loop_
 _atom_site_type_symbol
 _atom_site_label
 _atom_site_symmetry_multiplicity
 _atom_site_fract_x
 _atom_site_fract_y
 _atom_site_fract_z
 _atom_site_occupancy
  Ac  Ac0  1  0.00000000  0.00000000  0.00000000  1
  Y  Y1  1  0.00000000  0.00000000  0.50000000  1
  Tl  Tl2  1  0.50000000  0.50000000  0.00000000  1
  Tl  Tl3  1  0.50000000  0.50000000  0.50000000  1
  Tl  Tl4  1  0.50000000  0.00000000  0.26133075  1
  Tl  Tl5  1  0.50000000  0.00000000  0.73866925  1
  Tl  Tl6  1  0.00000000  0.50000000  0.26133075  1
  Tl  Tl7  1  0.00000000  0.50000000  0.73866925  1
