# generated using pymatgen
data_Li2CdOs
_symmetry_space_group_name_H-M   'P 1'
_cell_length_a   2.68904624
_cell_length_b   2.68904623
_cell_length_c   9.44901932
_cell_angle_alpha   90.00000000
_cell_angle_beta   90.00000000
_cell_angle_gamma   112.99261910
_symmetry_Int_Tables_number   1
_chemical_formula_structural   Li2CdOs
_chemical_formula_sum   'Li2 Cd1 Os1'
_cell_volume   62.89745920
_cell_formula_units_Z   1
loop_
 _symmetry_equiv_pos_site_id
 _symmetry_equiv_pos_as_xyz
  1  'x, y, z'
loop_
 _atom_site_type_symbol
 _atom_site_label
 _atom_site_symmetry_multiplicity
 _atom_site_fract_x
 _atom_site_fract_y
 _atom_site_fract_z
 _atom_site_occupancy
  Cd  Cd0  1  0.50000000  0.50000000  0.75000000  1
  Li  Li1  1  0.00000000  0.00000000  0.02302186  1
  Li  Li2  1  0.00000000  0.00000000  0.47697814  1
  Os  Os3  1  0.50000000  0.50000000  0.25000000  1
