# generated using pymatgen
data_HfPOs
_symmetry_space_group_name_H-M   'P 1'
_cell_length_a   6.38906732
_cell_length_b   3.90700536
_cell_length_c   7.31714473
_cell_angle_alpha   90.00000000
_cell_angle_beta   90.00000000
_cell_angle_gamma   90.00000000
_symmetry_Int_Tables_number   1
_chemical_formula_structural   HfPOs
_chemical_formula_sum   'Hf4 P4 Os4'
_cell_volume   182.65144678
_cell_formula_units_Z   4
loop_
 _symmetry_equiv_pos_site_id
 _symmetry_equiv_pos_as_xyz
  1  'x, y, z'
loop_
 _atom_site_type_symbol
 _atom_site_label
 _atom_site_symmetry_multiplicity
 _atom_site_fract_x
 _atom_site_fract_y
 _atom_site_fract_z
 _atom_site_occupancy
  Hf  Hf0  1  0.47765188  0.24999966  0.17750230  1
  Hf  Hf1  1  0.97765130  0.24999966  0.32249738  1
  Hf  Hf2  1  0.02234911  0.74999897  0.67750197  1
  Hf  Hf3  1  0.52234854  0.74999897  0.82249706  1
  Os  Os4  1  0.15657528  0.74999897  0.06030904  1
  Os  Os5  1  0.65657471  0.74999897  0.43969063  1
  Os  Os6  1  0.34342571  0.24999966  0.56030872  1
  Os  Os7  1  0.84342514  0.24999966  0.93969031  1
  P  P8  1  0.77525087  0.74999897  0.12473718  1
  P  P9  1  0.27524988  0.74999897  0.37526250  1
  P  P10  1  0.72474898  0.24999966  0.62473686  1
  P  P11  1  0.22474955  0.24999966  0.87526217  1
