# generated using pymatgen
data_LaEuRh2
_symmetry_space_group_name_H-M   'P 1'
_cell_length_a   3.58488893
_cell_length_b   3.58488893
_cell_length_c   7.02403237
_cell_angle_alpha   90.00000000
_cell_angle_beta   90.00000000
_cell_angle_gamma   90.00000000
_symmetry_Int_Tables_number   1
_chemical_formula_structural   LaEuRh2
_chemical_formula_sum   'La1 Eu1 Rh2'
_cell_volume   90.26885077
_cell_formula_units_Z   1
loop_
 _symmetry_equiv_pos_site_id
 _symmetry_equiv_pos_as_xyz
  1  'x, y, z'
loop_
 _atom_site_type_symbol
 _atom_site_label
 _atom_site_symmetry_multiplicity
 _atom_site_fract_x
 _atom_site_fract_y
 _atom_site_fract_z
 _atom_site_occupancy
  Eu  Eu0  1  0.50000000  0.50000000  0.50000000  1
  Rh  Rh1  1  0.00000000  0.00000000  0.76588545  1
  Rh  Rh2  1  0.00000000  0.00000000  0.23411455  1
  La  La3  1  0.50000000  0.50000000  0.00000000  1
