# generated using pymatgen
data_KTl(AgCl4)2
_symmetry_space_group_name_H-M   'P 1'
_cell_length_a   7.14807655
_cell_length_b   7.14807655
_cell_length_c   8.38214805
_cell_angle_alpha   115.23848247
_cell_angle_beta   115.23848247
_cell_angle_gamma   90.00000000
_symmetry_Int_Tables_number   1
_chemical_formula_structural   KTl(AgCl4)2
_chemical_formula_sum   'K1 Tl1 Ag2 Cl8'
_cell_volume   341.66055433
_cell_formula_units_Z   1
loop_
 _symmetry_equiv_pos_site_id
 _symmetry_equiv_pos_as_xyz
  1  'x, y, z'
loop_
 _atom_site_type_symbol
 _atom_site_label
 _atom_site_symmetry_multiplicity
 _atom_site_fract_x
 _atom_site_fract_y
 _atom_site_fract_z
 _atom_site_occupancy
  K  K0  1  0.75000000  0.25000000  0.50000000  1
  Tl  Tl1  1  0.00000000  0.00000000  0.00000000  1
  Ag  Ag2  1  0.50000000  0.50000000  0.00000000  1
  Ag  Ag3  1  0.25000000  0.75000000  0.50000000  1
  Cl  Cl4  1  0.71628156  0.84546934  0.05332009  1
  Cl  Cl5  1  0.33703853  0.20785075  0.05332009  1
  Cl  Cl6  1  0.57777084  0.68587165  0.52027907  1
  Cl  Cl7  1  0.94250823  0.83440742  0.52027907  1
  Cl  Cl8  1  0.16559258  0.42222916  0.47972093  1
  Cl  Cl9  1  0.31412835  0.05749177  0.47972093  1
  Cl  Cl10  1  0.15453066  0.66296147  0.94667991  1
  Cl  Cl11  1  0.79214925  0.28371844  0.94667991  1
