# generated using pymatgen
data_BaCuBS3
_symmetry_space_group_name_H-M   'P 1'
_cell_length_a   6.73910188
_cell_length_b   6.73910188
_cell_length_c   7.70471964
_cell_angle_alpha   69.70091272
_cell_angle_beta   69.70091274
_cell_angle_gamma   58.40974720
_symmetry_Int_Tables_number   1
_chemical_formula_structural   BaCuBS3
_chemical_formula_sum   'Ba2 Cu2 B2 S6'
_cell_volume   273.50969549
_cell_formula_units_Z   2
loop_
 _symmetry_equiv_pos_site_id
 _symmetry_equiv_pos_as_xyz
  1  'x, y, z'
loop_
 _atom_site_type_symbol
 _atom_site_label
 _atom_site_symmetry_multiplicity
 _atom_site_fract_x
 _atom_site_fract_y
 _atom_site_fract_z
 _atom_site_occupancy
  Ba  Ba0  1  0.69522088  0.69522088  0.78075670  1
  Ba  Ba1  1  0.30477912  0.30477912  0.21924330  1
  Cu  Cu2  1  0.29327308  0.70672692  0.50000000  1
  Cu  Cu3  1  0.70672692  0.29327308  0.50000000  1
  B  B4  1  0.03185015  0.03185015  0.75240929  1
  B  B5  1  0.96814985  0.96814985  0.24759071  1
  S  S6  1  0.19734896  0.19734896  0.67588368  1
  S  S7  1  0.18215576  0.70110228  0.80041654  1
  S  S8  1  0.70110328  0.18215576  0.80041654  1
  S  S9  1  0.29889772  0.81784424  0.19958346  1
  S  S10  1  0.81784424  0.29889772  0.19958346  1
  S  S11  1  0.80265104  0.80265104  0.32411632  1
