# generated using pymatgen
data_Rb3ErF6
_symmetry_space_group_name_H-M   'P 1'
_cell_length_a   6.38364621
_cell_length_b   6.38561677
_cell_length_c   6.57915051
_cell_angle_alpha   118.80206073
_cell_angle_beta   90.38025699
_cell_angle_gamma   119.62883833
_symmetry_Int_Tables_number   1
_chemical_formula_structural   Rb3ErF6
_chemical_formula_sum   'Rb3 Er1 F6'
_cell_volume   193.44360980
_cell_formula_units_Z   1
loop_
 _symmetry_equiv_pos_site_id
 _symmetry_equiv_pos_as_xyz
  1  'x, y, z'
loop_
 _atom_site_type_symbol
 _atom_site_label
 _atom_site_symmetry_multiplicity
 _atom_site_fract_x
 _atom_site_fract_y
 _atom_site_fract_z
 _atom_site_occupancy
  Er  Er0  1  0.00000000  0.00000000  0.00000000  1
  F  F1  1  0.69883672  0.98468205  0.14832020  1
  F  F2  1  0.16690425  0.45013145  0.15275297  1
  F  F3  1  0.21065884  0.10918524  0.33054195  1
  F  F4  1  0.78934179  0.89081439  0.66945855  1
  F  F5  1  0.83309420  0.54986696  0.84724570  1
  F  F6  1  0.30116392  0.01531757  0.85168030  1
  Rb  Rb7  1  0.74776129  0.48715601  0.23159038  1
  Rb  Rb8  1  0.50000030  0.00000000  0.50000025  1
  Rb  Rb9  1  0.25223806  0.51284420  0.76840829  1
