# generated using pymatgen
data_NbPd
_symmetry_space_group_name_H-M   'P 1'
_cell_length_a   9.52173647
_cell_length_b   9.52173646
_cell_length_c   2.76081501
_cell_angle_alpha   90.00000000
_cell_angle_beta   90.00000000
_cell_angle_gamma   120.00000000
_symmetry_Int_Tables_number   1
_chemical_formula_structural   NbPd
_chemical_formula_sum   'Nb6 Pd6'
_cell_volume   216.77053716
_cell_formula_units_Z   6
loop_
 _symmetry_equiv_pos_site_id
 _symmetry_equiv_pos_as_xyz
  1  'x, y, z'
loop_
 _atom_site_type_symbol
 _atom_site_label
 _atom_site_symmetry_multiplicity
 _atom_site_fract_x
 _atom_site_fract_y
 _atom_site_fract_z
 _atom_site_occupancy
  Nb  Nb0  1  0.62470861  0.14308274  0.25000000  1
  Nb  Nb1  1  0.48162587  0.62470861  0.75000000  1
  Nb  Nb2  1  0.85691726  0.48162587  0.25000000  1
  Nb  Nb3  1  0.37529139  0.85691726  0.75000000  1
  Nb  Nb4  1  0.51837413  0.37529139  0.25000000  1
  Nb  Nb5  1  0.14308274  0.51837413  0.75000000  1
  Pd  Pd6  1  0.94131896  0.22820700  0.25000000  1
  Pd  Pd7  1  0.71311196  0.94131896  0.75000000  1
  Pd  Pd8  1  0.77179300  0.71311196  0.25000000  1
  Pd  Pd9  1  0.05868104  0.77179300  0.75000000  1
  Pd  Pd10  1  0.28688804  0.05868104  0.25000000  1
  Pd  Pd11  1  0.22820700  0.28688804  0.75000000  1
