# generated using pymatgen
data_ZrOs2
_symmetry_space_group_name_H-M   'P 1'
_cell_length_a   5.24324609
_cell_length_b   5.24324609
_cell_length_c   5.24324609
_cell_angle_alpha   60.00000000
_cell_angle_beta   60.00000000
_cell_angle_gamma   60.00000000
_symmetry_Int_Tables_number   1
_chemical_formula_structural   ZrOs2
_chemical_formula_sum   'Zr2 Os4'
_cell_volume   101.92617514
_cell_formula_units_Z   2
loop_
 _symmetry_equiv_pos_site_id
 _symmetry_equiv_pos_as_xyz
  1  'x, y, z'
loop_
 _atom_site_type_symbol
 _atom_site_label
 _atom_site_symmetry_multiplicity
 _atom_site_fract_x
 _atom_site_fract_y
 _atom_site_fract_z
 _atom_site_occupancy
  Os  Os0  1  0.62500019  0.62500019  0.12499950  1
  Os  Os1  1  0.62500019  0.12499950  0.62500019  1
  Os  Os2  1  0.12499950  0.62500019  0.62500019  1
  Os  Os3  1  0.62500019  0.62500019  0.62500019  1
  Zr  Zr4  1  0.00000000  0.00000000  0.00000000  1
  Zr  Zr5  1  0.25000035  0.25000035  0.25000035  1
