# generated using pymatgen
data_DyHC
_symmetry_space_group_name_H-M   'P 1'
_cell_length_a   3.68408812
_cell_length_b   3.87478920
_cell_length_c   6.23384041
_cell_angle_alpha   95.39328022
_cell_angle_beta   90.00000000
_cell_angle_gamma   118.38488074
_symmetry_Int_Tables_number   1
_chemical_formula_structural   DyHC
_chemical_formula_sum   'Dy2 H2 C2'
_cell_volume   77.84167293
_cell_formula_units_Z   2
loop_
 _symmetry_equiv_pos_site_id
 _symmetry_equiv_pos_as_xyz
  1  'x, y, z'
loop_
 _atom_site_type_symbol
 _atom_site_label
 _atom_site_symmetry_multiplicity
 _atom_site_fract_x
 _atom_site_fract_y
 _atom_site_fract_z
 _atom_site_occupancy
  Dy  Dy0  1  0.64960990  0.29921979  0.25095353  1
  Dy  Dy1  1  0.35039010  0.70078021  0.74904647  1
  H  H2  1  0.31279242  0.62558383  0.39010821  1
  H  H3  1  0.68720758  0.37441617  0.60989179  1
  C  C4  1  0.92725110  0.85450220  0.06119932  1
  C  C5  1  0.07274890  0.14549780  0.93880068  1
