# generated using pymatgen
data_NpSc2UAs4
_symmetry_space_group_name_H-M   'P 1'
_cell_length_a   3.97602106
_cell_length_b   6.87778278
_cell_length_c   6.94009591
_cell_angle_alpha   109.30992233
_cell_angle_beta   90.00000000
_cell_angle_gamma   90.00000000
_symmetry_Int_Tables_number   1
_chemical_formula_structural   NpSc2UAs4
_chemical_formula_sum   'Np1 Sc2 U1 As4'
_cell_volume   179.10869486
_cell_formula_units_Z   1
loop_
 _symmetry_equiv_pos_site_id
 _symmetry_equiv_pos_as_xyz
  1  'x, y, z'
loop_
 _atom_site_type_symbol
 _atom_site_label
 _atom_site_symmetry_multiplicity
 _atom_site_fract_x
 _atom_site_fract_y
 _atom_site_fract_z
 _atom_site_occupancy
  Np  Np0  1  0.50000000  0.50000000  0.00000000  1
  Sc  Sc1  1  0.50000000  0.00000000  0.50000000  1
  Sc  Sc2  1  0.00000000  0.50000000  0.50000000  1
  U  U3  1  0.00000000  0.00000000  0.00000000  1
  As  As4  1  0.50000000  0.25348753  0.26421173  1
  As  As5  1  0.50000000  0.74651247  0.73578827  1
  As  As6  1  0.00000000  0.24443705  0.73627779  1
  As  As7  1  0.00000000  0.75556295  0.26372221  1
