# generated using pymatgen
data_Zr2Pt
_symmetry_space_group_name_H-M   'P 1'
_cell_length_a   15.01135900
_cell_length_b   3.30043500
_cell_length_c   4.79700600
_cell_angle_alpha   90.00000000
_cell_angle_beta   90.00000000
_cell_angle_gamma   90.00000000
_symmetry_Int_Tables_number   1
_chemical_formula_structural   Zr2Pt
_chemical_formula_sum   'Zr8 Pt4'
_cell_volume   237.66293550
_cell_formula_units_Z   4
loop_
 _symmetry_equiv_pos_site_id
 _symmetry_equiv_pos_as_xyz
  1  'x, y, z'
loop_
 _atom_site_type_symbol
 _atom_site_label
 _atom_site_symmetry_multiplicity
 _atom_site_fract_x
 _atom_site_fract_y
 _atom_site_fract_z
 _atom_site_occupancy
  Pt  Pt0  1  0.31762614  0.00000000  0.00000000  1
  Pt  Pt1  1  0.81758354  0.49999773  0.00000000  1
  Pt  Pt2  1  0.12685727  0.00000000  0.50000146  1
  Pt  Pt3  1  0.62681400  0.49999773  0.50000146  1
  Zr  Zr4  1  0.64750100  0.00000000  0.00000000  1
  Zr  Zr5  1  0.96774716  0.00000000  0.00000000  1
  Zr  Zr6  1  0.14758291  0.49999773  0.00000000  1
  Zr  Zr7  1  0.46779709  0.49999773  0.00000000  1
  Zr  Zr8  1  0.47664305  0.00000000  0.50000146  1
  Zr  Zr9  1  0.79685723  0.00000000  0.50000146  1
  Zr  Zr10  1  0.29693914  0.49999773  0.50000146  1
  Zr  Zr11  1  0.97669372  0.49999773  0.50000146  1
