# generated using pymatgen
data_TiPd7
_symmetry_space_group_name_H-M   'P 1'
_cell_length_a   3.93910326
_cell_length_b   3.93910264
_cell_length_c   8.35905326
_cell_angle_alpha   103.62810918
_cell_angle_beta   103.62810343
_cell_angle_gamma   90.00000507
_symmetry_Int_Tables_number   1
_chemical_formula_structural   TiPd7
_chemical_formula_sum   'Ti1 Pd7'
_cell_volume   122.29105506
_cell_formula_units_Z   1
loop_
 _symmetry_equiv_pos_site_id
 _symmetry_equiv_pos_as_xyz
  1  'x, y, z'
loop_
 _atom_site_type_symbol
 _atom_site_label
 _atom_site_symmetry_multiplicity
 _atom_site_fract_x
 _atom_site_fract_y
 _atom_site_fract_z
 _atom_site_occupancy
  Ti  Ti0  1  0.00000000  0.00000000  0.00000000  1
  Pd  Pd1  1  0.87941006  0.37941006  0.75882112  1
  Pd  Pd2  1  0.74865564  0.74865564  0.49731228  1
  Pd  Pd3  1  0.62058994  0.12058994  0.24117888  1
  Pd  Pd4  1  0.50000000  0.50000000  0.00000000  1
  Pd  Pd5  1  0.37941006  0.87941006  0.75882112  1
  Pd  Pd6  1  0.25134436  0.25134436  0.50268772  1
  Pd  Pd7  1  0.12058994  0.62058994  0.24117888  1
