# generated using pymatgen
data_CsSBr2
_symmetry_space_group_name_H-M   'P 1'
_cell_length_a   5.20949963
_cell_length_b   5.21219693
_cell_length_c   13.68525875
_cell_angle_alpha   91.74528361
_cell_angle_beta   91.56103105
_cell_angle_gamma   91.06145665
_symmetry_Int_Tables_number   1
_chemical_formula_structural   CsSBr2
_chemical_formula_sum   'Cs2 S2 Br4'
_cell_volume   371.21509126
_cell_formula_units_Z   2
loop_
 _symmetry_equiv_pos_site_id
 _symmetry_equiv_pos_as_xyz
  1  'x, y, z'
loop_
 _atom_site_type_symbol
 _atom_site_label
 _atom_site_symmetry_multiplicity
 _atom_site_fract_x
 _atom_site_fract_y
 _atom_site_fract_z
 _atom_site_occupancy
  Cs  Cs0  1  0.38902035  0.05727339  0.43499442  1
  Cs  Cs1  1  0.87732617  0.54322056  0.15132311  1
  S  S2  1  0.92258517  0.28791989  0.81829894  1
  S  S3  1  0.66758816  0.04233184  0.76589863  1
  Br  Br4  1  0.81914041  0.80113048  0.63357758  1
  Br  Br5  1  0.89799641  0.54835794  0.41903068  1
  Br  Br6  1  0.15130941  0.12824034  0.95178393  1
  Br  Br7  1  0.38638391  0.03485555  0.16726272  1
