# generated using pymatgen
data_SrCe2Be2O6
_symmetry_space_group_name_H-M   'P 1'
_cell_length_a   5.65831136
_cell_length_b   5.65831136
_cell_length_c   6.24199467
_cell_angle_alpha   90.00000000
_cell_angle_beta   90.00000000
_cell_angle_gamma   120.00000001
_symmetry_Int_Tables_number   1
_chemical_formula_structural   SrCe2Be2O6
_chemical_formula_sum   'Sr1 Ce2 Be2 O6'
_cell_volume   173.07235715
_cell_formula_units_Z   1
loop_
 _symmetry_equiv_pos_site_id
 _symmetry_equiv_pos_as_xyz
  1  'x, y, z'
loop_
 _atom_site_type_symbol
 _atom_site_label
 _atom_site_symmetry_multiplicity
 _atom_site_fract_x
 _atom_site_fract_y
 _atom_site_fract_z
 _atom_site_occupancy
  Sr  Sr0  1  0.00000000  0.00000000  0.00000000  1
  Ce  Ce1  1  0.33333333  0.66666667  0.37337299  1
  Ce  Ce2  1  0.66666667  0.33333333  0.62662701  1
  Be  Be3  1  0.33333333  0.66666667  0.80108633  1
  Be  Be4  1  0.66666667  0.33333333  0.19891367  1
  O  O5  1  0.33659601  0.39809952  0.75500801  1
  O  O6  1  0.06150351  0.66340399  0.75500801  1
  O  O7  1  0.60190048  0.93849649  0.75500801  1
  O  O8  1  0.66340399  0.60190048  0.24499199  1
  O  O9  1  0.93849649  0.33659601  0.24499199  1
  O  O10  1  0.39809952  0.06150351  0.24499199  1
