# generated using pymatgen
data_DyYC
_symmetry_space_group_name_H-M   'P 1'
_cell_length_a   6.48152358
_cell_length_b   6.48152358
_cell_length_c   6.23392318
_cell_angle_alpha   99.29541194
_cell_angle_beta   99.29541194
_cell_angle_gamma   32.25684703
_symmetry_Int_Tables_number   1
_chemical_formula_structural   DyYC
_chemical_formula_sum   'Dy2 Y2 C2'
_cell_volume   137.78372013
_cell_formula_units_Z   2
loop_
 _symmetry_equiv_pos_site_id
 _symmetry_equiv_pos_as_xyz
  1  'x, y, z'
loop_
 _atom_site_type_symbol
 _atom_site_label
 _atom_site_symmetry_multiplicity
 _atom_site_fract_x
 _atom_site_fract_y
 _atom_site_fract_z
 _atom_site_occupancy
  C  C0  1  0.49999998  0.49999998  0.00000000  1
  C  C1  1  0.00000000  0.00000000  0.49999928  1
  Dy  Dy2  1  0.89095693  0.89095693  0.13029585  1
  Dy  Dy3  1  0.10904291  0.10904291  0.86970435  1
  Y  Y4  1  0.61011123  0.61011123  0.37070422  1
  Y  Y5  1  0.38988861  0.38988861  0.62929598  1
