# generated using pymatgen
data_Er7(ZnNi)2
_symmetry_space_group_name_H-M   'P 1'
_cell_length_a   6.57793329
_cell_length_b   6.83737501
_cell_length_c   6.57793329
_cell_angle_alpha   89.99885539
_cell_angle_beta   110.13924581
_cell_angle_gamma   90.00114460
_symmetry_Int_Tables_number   1
_chemical_formula_structural   Er7(ZnNi)2
_chemical_formula_sum   'Er7 Zn2 Ni2'
_cell_volume   277.75925270
_cell_formula_units_Z   1
loop_
 _symmetry_equiv_pos_site_id
 _symmetry_equiv_pos_as_xyz
  1  'x, y, z'
loop_
 _atom_site_type_symbol
 _atom_site_label
 _atom_site_symmetry_multiplicity
 _atom_site_fract_x
 _atom_site_fract_y
 _atom_site_fract_z
 _atom_site_occupancy
  Er  Er0  1  0.99978271  0.25498544  0.50034455  1
  Er  Er1  1  0.50034455  0.74501456  0.99978271  1
  Er  Er2  1  0.00021729  0.74501456  0.49965545  1
  Er  Er3  1  0.49965545  0.25498544  0.00021729  1
  Er  Er4  1  0.00000000  0.00000000  0.00000000  1
  Er  Er5  1  0.50022880  0.75175915  0.49977120  1
  Er  Er6  1  0.49977120  0.24824085  0.50022880  1
  Zn  Zn7  1  0.83189996  0.50000000  0.83189996  1
  Zn  Zn8  1  0.16810004  0.50000000  0.16810004  1
  Ni  Ni9  1  0.70347831  0.99997630  0.29652169  1
  Ni  Ni10  1  0.29652169  0.00002370  0.70347831  1
