# generated using pymatgen
data_Ac2Nd2Se2S3
_symmetry_space_group_name_H-M   'P 1'
_cell_length_a   5.63825346
_cell_length_b   5.63825346
_cell_length_c   8.85169362
_cell_angle_alpha   108.57129527
_cell_angle_beta   108.57129527
_cell_angle_gamma   90.00000000
_symmetry_Int_Tables_number   1
_chemical_formula_structural   Ac2Nd2Se2S3
_chemical_formula_sum   'Ac2 Nd2 Se2 S3'
_cell_volume   251.23583742
_cell_formula_units_Z   1
loop_
 _symmetry_equiv_pos_site_id
 _symmetry_equiv_pos_as_xyz
  1  'x, y, z'
loop_
 _atom_site_type_symbol
 _atom_site_label
 _atom_site_symmetry_multiplicity
 _atom_site_fract_x
 _atom_site_fract_y
 _atom_site_fract_z
 _atom_site_occupancy
  Ac  Ac0  1  0.19822132  0.19822032  0.39644164  1
  Ac  Ac1  1  0.80177868  0.80177968  0.60355836  1
  Nd  Nd2  1  0.50000000  0.00000000  0.00000000  1
  Nd  Nd3  1  0.00000000  0.50000000  0.00000000  1
  Se  Se4  1  0.60108460  0.60108560  0.20217019  1
  Se  Se5  1  0.39891540  0.39891440  0.79782981  1
  S  S6  1  0.00000000  0.00000000  0.00000000  1
  S  S7  1  0.25000000  0.75000000  0.50000000  1
  S  S8  1  0.75000000  0.25000000  0.50000000  1
