# generated using pymatgen
data_Ac3BPt8
_symmetry_space_group_name_H-M   'P 1'
_cell_length_a   5.64458532
_cell_length_b   5.64458504
_cell_length_c   9.37155491
_cell_angle_alpha   90.00000000
_cell_angle_beta   90.00000000
_cell_angle_gamma   119.99999609
_symmetry_Int_Tables_number   1
_chemical_formula_structural   Ac3BPt8
_chemical_formula_sum   'Ac3 B1 Pt8'
_cell_volume   258.58680825
_cell_formula_units_Z   1
loop_
 _symmetry_equiv_pos_site_id
 _symmetry_equiv_pos_as_xyz
  1  'x, y, z'
loop_
 _atom_site_type_symbol
 _atom_site_label
 _atom_site_symmetry_multiplicity
 _atom_site_fract_x
 _atom_site_fract_y
 _atom_site_fract_z
 _atom_site_occupancy
  Ac  Ac0  1  0.33333300  0.66666700  0.51588310  1
  Ac  Ac1  1  0.33333300  0.66666700  0.91468371  1
  Ac  Ac2  1  0.00000000  0.00000000  0.10471473  1
  B  B3  1  0.00000000  0.00000000  0.61616104  1
  Pt  Pt4  1  0.66666700  0.33333300  0.47410413  1
  Pt  Pt5  1  0.66666700  0.33333300  0.98404381  1
  Pt  Pt6  1  0.49974690  0.50025310  0.23160969  1
  Pt  Pt7  1  0.49974690  0.99949480  0.23160969  1
  Pt  Pt8  1  0.00050520  0.50025310  0.23160969  1
  Pt  Pt9  1  0.82704691  0.17295309  0.73184147  1
  Pt  Pt10  1  0.82704591  0.65409282  0.73184147  1
  Pt  Pt11  1  0.34590718  0.17295409  0.73184147  1
