# generated using pymatgen
data_Dy4MgZn2Cu
_symmetry_space_group_name_H-M   'P 1'
_cell_length_a   5.08533972
_cell_length_b   5.08533972
_cell_length_c   8.77231941
_cell_angle_alpha   73.15093478
_cell_angle_beta   73.15093479
_cell_angle_gamma   59.99999998
_symmetry_Int_Tables_number   1
_chemical_formula_structural   Dy4MgZn2Cu
_chemical_formula_sum   'Dy4 Mg1 Zn2 Cu1'
_cell_volume   185.13433244
_cell_formula_units_Z   1
loop_
 _symmetry_equiv_pos_site_id
 _symmetry_equiv_pos_as_xyz
  1  'x, y, z'
loop_
 _atom_site_type_symbol
 _atom_site_label
 _atom_site_symmetry_multiplicity
 _atom_site_fract_x
 _atom_site_fract_y
 _atom_site_fract_z
 _atom_site_occupancy
  Dy  Dy0  1  0.38252958  0.38252958  0.85241125  1
  Dy  Dy1  1  0.86925574  0.86925574  0.39223279  1
  Dy  Dy2  1  0.13074426  0.13074426  0.60776721  1
  Dy  Dy3  1  0.61747042  0.61747042  0.14758875  1
  Mg  Mg4  1  0.00000000  0.00000000  0.00000000  1
  Zn  Zn5  1  0.74122609  0.74122609  0.77632174  1
  Zn  Zn6  1  0.25877391  0.25877391  0.22367826  1
  Cu  Cu7  1  0.50000000  0.50000000  0.50000000  1
