# generated using pymatgen
data_ThNiSn3
_symmetry_space_group_name_H-M   'P 1'
_cell_length_a   4.97368702
_cell_length_b   4.84412102
_cell_length_c   10.58147943
_cell_angle_alpha   103.23209558
_cell_angle_beta   103.59558063
_cell_angle_gamma   90.00000000
_symmetry_Int_Tables_number   1
_chemical_formula_structural   ThNiSn3
_chemical_formula_sum   'Th2 Ni2 Sn6'
_cell_volume   240.82825281
_cell_formula_units_Z   2
loop_
 _symmetry_equiv_pos_site_id
 _symmetry_equiv_pos_as_xyz
  1  'x, y, z'
loop_
 _atom_site_type_symbol
 _atom_site_label
 _atom_site_symmetry_multiplicity
 _atom_site_fract_x
 _atom_site_fract_y
 _atom_site_fract_z
 _atom_site_occupancy
  Th  Th0  1  0.16567160  0.41627874  0.83255748  1
  Th  Th1  1  0.83432840  0.58372126  0.16744252  1
  Ni  Ni2  1  0.41134467  0.16150141  0.32300281  1
  Ni  Ni3  1  0.58865533  0.83849859  0.67699719  1
  Sn  Sn4  1  0.71286710  0.96278422  0.92556843  1
  Sn  Sn5  1  0.28713290  0.03721578  0.07443157  1
  Sn  Sn6  1  0.44938216  0.69917512  0.39835024  1
  Sn  Sn7  1  0.55061784  0.30082488  0.60164976  1
  Sn  Sn8  1  0.04945571  0.79931517  0.59863034  1
  Sn  Sn9  1  0.95054429  0.20068483  0.40136966  1
