# generated using pymatgen
data_Mg2Tl9In
_symmetry_space_group_name_H-M   'P 1'
_cell_length_a   4.74026955
_cell_length_b   4.74026955
_cell_length_c   15.27254264
_cell_angle_alpha   90.00000000
_cell_angle_beta   90.00000000
_cell_angle_gamma   90.00000000
_symmetry_Int_Tables_number   1
_chemical_formula_structural   Mg2Tl9In
_chemical_formula_sum   'Mg2 Tl9 In1'
_cell_volume   343.17640658
_cell_formula_units_Z   1
loop_
 _symmetry_equiv_pos_site_id
 _symmetry_equiv_pos_as_xyz
  1  'x, y, z'
loop_
 _atom_site_type_symbol
 _atom_site_label
 _atom_site_symmetry_multiplicity
 _atom_site_fract_x
 _atom_site_fract_y
 _atom_site_fract_z
 _atom_site_occupancy
  Mg  Mg0  1  0.00000000  0.00000000  0.33764484  1
  Mg  Mg1  1  0.00000000  0.00000000  0.66235516  1
  Tl  Tl2  1  0.50000000  0.50000000  0.00000000  1
  Tl  Tl3  1  0.50000000  0.50000000  0.33617020  1
  Tl  Tl4  1  0.50000000  0.50000000  0.66382980  1
  Tl  Tl5  1  0.50000000  0.00000000  0.17332230  1
  Tl  Tl6  1  0.50000000  0.00000000  0.50000000  1
  Tl  Tl7  1  0.50000000  0.00000000  0.82667770  1
  Tl  Tl8  1  0.00000000  0.50000000  0.17332230  1
  Tl  Tl9  1  0.00000000  0.50000000  0.50000000  1
  Tl  Tl10  1  0.00000000  0.50000000  0.82667770  1
  In  In11  1  0.00000000  0.00000000  0.00000000  1
