# generated using pymatgen
data_Ba3(MgGa2)2
_symmetry_space_group_name_H-M   'P 1'
_cell_length_a   4.61187081
_cell_length_b   6.68509467
_cell_length_c   9.89306963
_cell_angle_alpha   97.67154111
_cell_angle_beta   90.00000000
_cell_angle_gamma   110.17794011
_symmetry_Int_Tables_number   1
_chemical_formula_structural   Ba3(MgGa2)2
_chemical_formula_sum   'Ba3 Mg2 Ga4'
_cell_volume   283.38115076
_cell_formula_units_Z   1
loop_
 _symmetry_equiv_pos_site_id
 _symmetry_equiv_pos_as_xyz
  1  'x, y, z'
loop_
 _atom_site_type_symbol
 _atom_site_label
 _atom_site_symmetry_multiplicity
 _atom_site_fract_x
 _atom_site_fract_y
 _atom_site_fract_z
 _atom_site_occupancy
  Ba  Ba0  1  0.38461383  0.76922767  0.60738402  1
  Ba  Ba1  1  0.00000000  0.00000000  0.00000000  1
  Ba  Ba2  1  0.61538617  0.23077233  0.39261598  1
  Mg  Mg3  1  0.32067299  0.64134697  0.20332960  1
  Mg  Mg4  1  0.67932701  0.35865303  0.79667040  1
  Ga  Ga5  1  0.71706491  0.43412982  0.08232522  1
  Ga  Ga6  1  0.10946481  0.21892961  0.66858521  1
  Ga  Ga7  1  0.89053519  0.78107039  0.33141479  1
  Ga  Ga8  1  0.28293509  0.56587018  0.91767478  1
