# generated using pymatgen
data_Sm12Gd3Bi5
_symmetry_space_group_name_H-M   'P 1'
_cell_length_a   16.26276891
_cell_length_b   16.26276890
_cell_length_c   16.26276890
_cell_angle_alpha   109.47122063
_cell_angle_beta   109.47122065
_cell_angle_gamma   109.47122065
_symmetry_Int_Tables_number   1
_chemical_formula_structural   Sm12Gd3Bi5
_chemical_formula_sum   'Sm48 Gd12 Bi20'
_cell_volume   3311.01829981
_cell_formula_units_Z   4
loop_
 _symmetry_equiv_pos_site_id
 _symmetry_equiv_pos_as_xyz
  1  'x, y, z'
loop_
 _atom_site_type_symbol
 _atom_site_label
 _atom_site_symmetry_multiplicity
 _atom_site_fract_x
 _atom_site_fract_y
 _atom_site_fract_z
 _atom_site_occupancy
  Gd  Gd0  1  0.75000000  0.37500000  0.12500000  1
  Gd  Gd1  1  0.87500000  0.75000000  0.12500000  1
  Gd  Gd2  1  0.37500000  0.75000000  0.62500000  1
  Gd  Gd3  1  0.25000000  0.12500000  0.37500000  1
  Gd  Gd4  1  0.87500000  0.12500000  0.25000000  1
  Gd  Gd5  1  0.37500000  0.62500000  0.25000000  1
  Gd  Gd6  1  0.62500000  0.37500000  0.75000000  1
  Gd  Gd7  1  0.12500000  0.87500000  0.75000000  1
  Gd  Gd8  1  0.75000000  0.87500000  0.62500000  1
  Gd  Gd9  1  0.62500000  0.25000000  0.37500000  1
  Gd  Gd10  1  0.12500000  0.25000000  0.87500000  1
  Gd  Gd11  1  0.25000000  0.62500000  0.87500000  1
  Bi  Bi12  1  0.12500000  0.37500000  0.25000000  1
  Bi  Bi13  1  -0.00000000  0.50000000  0.00000000  1
  Bi  Bi14  1  0.00000000  0.00000000  0.00000000  1
  Bi  Bi15  1  0.37500000  0.25000000  0.12500000  1
  Bi  Bi16  1  0.50000000  0.00000000  0.50000000  1
  Bi  Bi17  1  0.50000000  0.50000000  0.00000000  1
  Bi  Bi18  1  0.12500000  0.75000000  0.37500000  1
  Bi  Bi19  1  0.75000000  0.12500000  0.87500000  1
  Bi  Bi20  1  0.75000000  0.62500000  0.37500000  1
  Bi  Bi21  1  0.37500000  0.12500000  0.75000000  1
  Bi  Bi22  1  0.62500000  0.87500000  0.25000000  1
  Bi  Bi23  1  0.50000000  0.50000000  0.50000000  1
  Bi  Bi24  1  0.50000000  0.00000000  0.00000000  1
  Bi  Bi25  1  0.00000000  0.00000000  0.50000000  1
  Bi  Bi26  1  0.25000000  0.37500000  0.62500000  1
  Bi  Bi27  1  0.25000000  0.87500000  0.12500000  1
  Bi  Bi28  1  -0.00000000  0.50000000  0.50000000  1
  Bi  Bi29  1  0.87500000  0.25000000  0.62500000  1
  Bi  Bi30  1  0.62500000  0.75000000  0.87500000  1
  Bi  Bi31  1  0.87500000  0.62500000  0.75000000  1
  Sm  Sm32  1  0.72492090  0.12433656  0.05426514  1
  Sm  Sm33  1  0.32934424  0.55426514  0.42992858  1
  Sm  Sm34  1  0.94573486  0.37566344  0.27507910  1
  Sm  Sm35  1  0.55426514  0.22492090  0.12433656  1
  Sm  Sm36  1  0.60058434  0.72492090  0.67065576  1
  Sm  Sm37  1  0.94573486  0.57007142  0.17065576  1
  Sm  Sm38  1  0.32934424  0.77507910  0.39941566  1
  Sm  Sm39  1  0.07007142  0.89941566  0.12433656  1
  Sm  Sm40  1  0.57007142  0.94573486  0.67065576  1
  Sm  Sm41  1  0.72492090  0.60058434  0.17065576  1
  Sm  Sm42  1  0.77507910  0.44573486  0.37566344  1
  Sm  Sm43  1  0.82934424  0.92992858  0.05426514  1
  Sm  Sm44  1  0.12433656  0.72492090  0.55426514  1
  Sm  Sm45  1  0.37566344  0.42992858  0.10058434  1
  Sm  Sm46  1  0.10058434  0.92992858  0.37566344  1
  Sm  Sm47  1  0.39941566  0.12433656  0.57007142  1
  Sm  Sm48  1  0.10058434  0.17065576  0.22492090  1
  Sm  Sm49  1  0.44573486  0.67065576  0.07007142  1
  Sm  Sm50  1  0.82934424  0.89941566  0.27507910  1
  Sm  Sm51  1  0.12433656  0.39941566  0.07007142  1
  Sm  Sm52  1  0.37566344  0.94573486  0.77507910  1
  Sm  Sm53  1  0.57007142  0.62433656  0.39941566  1
  Sm  Sm54  1  0.92992858  0.82934424  0.55426514  1
  Sm  Sm55  1  0.77507910  0.32934424  0.89941566  1
  Sm  Sm56  1  0.42992858  0.37566344  0.60058434  1
  Sm  Sm57  1  0.07007142  0.17065576  0.44573486  1
  Sm  Sm58  1  0.22492090  0.67065576  0.10058434  1
  Sm  Sm59  1  0.17065576  0.10058434  0.72492090  1
  Sm  Sm60  1  0.62433656  0.05426514  0.22492090  1
  Sm  Sm61  1  0.87566344  0.60058434  0.92992858  1
  Sm  Sm62  1  0.55426514  0.32934424  0.92992858  1
  Sm  Sm63  1  0.60058434  0.87566344  0.42992858  1
  Sm  Sm64  1  0.89941566  0.82934424  0.77507910  1
  Sm  Sm65  1  0.89941566  0.07007142  0.62433656  1
  Sm  Sm66  1  0.87566344  0.27507910  0.44573486  1
  Sm  Sm67  1  0.17065576  0.07007142  0.94573486  1
  Sm  Sm68  1  0.62433656  0.57007142  0.89941566  1
  Sm  Sm69  1  0.42992858  0.05426514  0.32934424  1
  Sm  Sm70  1  0.27507910  0.39941566  0.82934424  1
  Sm  Sm71  1  0.22492090  0.55426514  0.62433656  1
  Sm  Sm72  1  0.92992858  0.10058434  0.87566344  1
  Sm  Sm73  1  0.67065576  0.22492090  0.60058434  1
  Sm  Sm74  1  0.44573486  0.77507910  0.87566344  1
  Sm  Sm75  1  0.05426514  0.42992858  0.82934424  1
  Sm  Sm76  1  0.39941566  0.27507910  0.32934424  1
  Sm  Sm77  1  0.05426514  0.62433656  0.72492090  1
  Sm  Sm78  1  0.67065576  0.44573486  0.57007142  1
  Sm  Sm79  1  0.27507910  0.87566344  0.94573486  1
