# generated using pymatgen
data_CrOsPt2
_symmetry_space_group_name_H-M   'P 1'
_cell_length_a   4.73485373
_cell_length_b   4.73485374
_cell_length_c   4.70799501
_cell_angle_alpha   80.32489660
_cell_angle_beta   80.32489656
_cell_angle_gamma   33.48226701
_symmetry_Int_Tables_number   1
_chemical_formula_structural   CrOsPt2
_chemical_formula_sum   'Cr1 Os1 Pt2'
_cell_volume   57.32475045
_cell_formula_units_Z   1
loop_
 _symmetry_equiv_pos_site_id
 _symmetry_equiv_pos_as_xyz
  1  'x, y, z'
loop_
 _atom_site_type_symbol
 _atom_site_label
 _atom_site_symmetry_multiplicity
 _atom_site_fract_x
 _atom_site_fract_y
 _atom_site_fract_z
 _atom_site_occupancy
  Cr  Cr0  1  0.75000000  0.75000000  0.75000000  1
  Os  Os1  1  0.25000000  0.25000000  0.25000000  1
  Pt  Pt2  1  0.00123988  0.00123988  0.99795279  1
  Pt  Pt3  1  0.49876012  0.49876012  0.50204721  1
