# generated using pymatgen
data_La2MgFeBi
_symmetry_space_group_name_H-M   'P 1'
_cell_length_a   5.13345360
_cell_length_b   5.13345360
_cell_length_c   5.09040602
_cell_angle_alpha   90.00000000
_cell_angle_beta   90.00000000
_cell_angle_gamma   90.00000000
_symmetry_Int_Tables_number   1
_chemical_formula_structural   La2MgFeBi
_chemical_formula_sum   'La2 Mg1 Fe1 Bi1'
_cell_volume   134.14414002
_cell_formula_units_Z   1
loop_
 _symmetry_equiv_pos_site_id
 _symmetry_equiv_pos_as_xyz
  1  'x, y, z'
loop_
 _atom_site_type_symbol
 _atom_site_label
 _atom_site_symmetry_multiplicity
 _atom_site_fract_x
 _atom_site_fract_y
 _atom_site_fract_z
 _atom_site_occupancy
  Fe  Fe0  1  0.00000000  0.00000000  0.00000000  1
  Mg  Mg1  1  0.00000000  0.00000000  0.50000000  1
  Bi  Bi2  1  0.50000000  0.50000000  0.50000000  1
  La  La3  1  0.00000000  0.50000000  0.00000000  1
  La  La4  1  0.50000000  0.00000000  0.00000000  1
