# generated using pymatgen
data_Nd4InAg2Ru
_symmetry_space_group_name_H-M   'P 1'
_cell_length_a   5.29626057
_cell_length_b   5.29626057
_cell_length_c   9.05546903
_cell_angle_alpha   72.99624613
_cell_angle_beta   72.99624612
_cell_angle_gamma   60.00000005
_symmetry_Int_Tables_number   1
_chemical_formula_structural   Nd4InAg2Ru
_chemical_formula_sum   'Nd4 In1 Ag2 Ru1'
_cell_volume   207.05765696
_cell_formula_units_Z   1
loop_
 _symmetry_equiv_pos_site_id
 _symmetry_equiv_pos_as_xyz
  1  'x, y, z'
loop_
 _atom_site_type_symbol
 _atom_site_label
 _atom_site_symmetry_multiplicity
 _atom_site_fract_x
 _atom_site_fract_y
 _atom_site_fract_z
 _atom_site_occupancy
  Nd  Nd0  1  0.38759509  0.38759509  0.83721474  1
  Nd  Nd1  1  0.86643620  0.86643620  0.40069140  1
  Nd  Nd2  1  0.13356380  0.13356380  0.59930860  1
  Nd  Nd3  1  0.61240491  0.61240491  0.16278526  1
  In  In4  1  0.00000000  0.00000000  0.00000000  1
  Ag  Ag5  1  0.73831423  0.73831423  0.78505731  1
  Ag  Ag6  1  0.26168577  0.26168577  0.21494269  1
  Ru  Ru7  1  0.50000000  0.50000000  0.50000000  1
