# generated using pymatgen
data_SbC
_symmetry_space_group_name_H-M   'P 1'
_cell_length_a   5.67379000
_cell_length_b   5.84420000
_cell_length_c   8.25775000
_cell_angle_alpha   90.00000000
_cell_angle_beta   90.00000000
_cell_angle_gamma   90.00000000
_symmetry_Int_Tables_number   1
_chemical_formula_structural   SbC
_chemical_formula_sum   'Sb8 C8'
_cell_volume   273.81677944
_cell_formula_units_Z   8
loop_
 _symmetry_equiv_pos_site_id
 _symmetry_equiv_pos_as_xyz
  1  'x, y, z'
loop_
 _atom_site_type_symbol
 _atom_site_label
 _atom_site_symmetry_multiplicity
 _atom_site_fract_x
 _atom_site_fract_y
 _atom_site_fract_z
 _atom_site_occupancy
  Sb  Sb0  1  0.76747000  0.03663000  0.97230000  1
  Sb  Sb1  1  0.26747000  0.46337000  0.02770000  1
  Sb  Sb2  1  0.23253000  0.53663000  0.52770000  1
  Sb  Sb3  1  0.73253000  0.96337000  0.47230000  1
  Sb  Sb4  1  0.26699000  0.97545000  0.77398000  1
  Sb  Sb5  1  0.76699000  0.52455000  0.22602000  1
  Sb  Sb6  1  0.73301000  0.47545000  0.72602000  1
  Sb  Sb7  1  0.23301000  0.02455000  0.27398000  1
  C  C8  1  0.39246000  0.10763000  0.02643000  1
  C  C9  1  0.89246000  0.39237000  0.97357000  1
  C  C10  1  0.60754000  0.60763000  0.47357000  1
  C  C11  1  0.10754000  0.89237000  0.52643000  1
  C  C12  1  0.38470000  0.61654000  0.79739000  1
  C  C13  1  0.88470000  0.88346000  0.20261000  1
  C  C14  1  0.61530000  0.11654000  0.70261000  1
  C  C15  1  0.11530000  0.38346000  0.29739000  1
