# generated using pymatgen
data_La3HoSb4
_symmetry_space_group_name_H-M   'P 1'
_cell_length_a   4.56916256
_cell_length_b   7.90078999
_cell_length_c   7.90078999
_cell_angle_alpha   109.47233966
_cell_angle_beta   90.00000000
_cell_angle_gamma   90.00000000
_symmetry_Int_Tables_number   1
_chemical_formula_structural   La3HoSb4
_chemical_formula_sum   'La3 Ho1 Sb4'
_cell_volume   268.90469520
_cell_formula_units_Z   1
loop_
 _symmetry_equiv_pos_site_id
 _symmetry_equiv_pos_as_xyz
  1  'x, y, z'
loop_
 _atom_site_type_symbol
 _atom_site_label
 _atom_site_symmetry_multiplicity
 _atom_site_fract_x
 _atom_site_fract_y
 _atom_site_fract_z
 _atom_site_occupancy
  La  La0  1  0.00000000  0.00000000  0.50000000  1
  La  La1  1  0.50000000  0.50000000  0.50000000  1
  La  La2  1  0.00000000  0.50000000  -0.00000000  1
  Ho  Ho3  1  0.50000000  0.00000000  0.00000000  1
  Sb  Sb4  1  0.00000000  0.24030892  0.24030892  1
  Sb  Sb5  1  0.50000000  0.75484959  0.24515041  1
  Sb  Sb6  1  0.00000000  0.75969108  0.75969108  1
  Sb  Sb7  1  0.50000000  0.24515041  0.75484959  1
