# generated using pymatgen
data_Sm4Y3Tm5
_symmetry_space_group_name_H-M   'P 1'
_cell_length_a   5.88164272
_cell_length_b   8.53105047
_cell_length_c   9.61798671
_cell_angle_alpha   105.25292006
_cell_angle_beta   72.19594576
_cell_angle_gamma   69.83531240
_symmetry_Int_Tables_number   1
_chemical_formula_structural   Sm4Y3Tm5
_chemical_formula_sum   'Sm4 Y3 Tm5'
_cell_volume   392.95658674
_cell_formula_units_Z   1
loop_
 _symmetry_equiv_pos_site_id
 _symmetry_equiv_pos_as_xyz
  1  'x, y, z'
loop_
 _atom_site_type_symbol
 _atom_site_label
 _atom_site_symmetry_multiplicity
 _atom_site_fract_x
 _atom_site_fract_y
 _atom_site_fract_z
 _atom_site_occupancy
  Sm  Sm0  1  0.86301055  0.22158107  0.05239783  1
  Sm  Sm1  1  0.16718955  0.04775500  0.61786690  1
  Sm  Sm2  1  0.83281045  0.95224500  0.38213310  1
  Sm  Sm3  1  0.13698945  0.77841893  0.94760217  1
  Y  Y4  1  0.52511246  0.68784963  0.26192545  1
  Y  Y5  1  0.00000000  0.50000000  0.50000000  1
  Y  Y6  1  0.47488754  0.31215037  0.73807455  1
  Tm  Tm7  1  0.63114682  0.93860646  0.79909989  1
  Tm  Tm8  1  0.50000000  0.50000000  0.50000000  1
  Tm  Tm9  1  0.21152593  0.45951298  0.11743517  1
  Tm  Tm10  1  0.78847407  0.54048702  0.88256483  1
  Tm  Tm11  1  0.36885318  0.06139354  0.20090011  1
