# generated using pymatgen
data_Mo(AsPb)2
_symmetry_space_group_name_H-M   'P 1'
_cell_length_a   6.65032730
_cell_length_b   6.65032730
_cell_length_c   5.28505978
_cell_angle_alpha   90.00000000
_cell_angle_beta   90.00000000
_cell_angle_gamma   90.00000000
_symmetry_Int_Tables_number   1
_chemical_formula_structural   Mo(AsPb)2
_chemical_formula_sum   'Mo2 As4 Pb4'
_cell_volume   233.74156303
_cell_formula_units_Z   2
loop_
 _symmetry_equiv_pos_site_id
 _symmetry_equiv_pos_as_xyz
  1  'x, y, z'
loop_
 _atom_site_type_symbol
 _atom_site_label
 _atom_site_symmetry_multiplicity
 _atom_site_fract_x
 _atom_site_fract_y
 _atom_site_fract_z
 _atom_site_occupancy
  Pb  Pb0  1  0.18104947  0.68104947  0.50000000  1
  Pb  Pb1  1  0.68104947  0.81895053  0.50000000  1
  Pb  Pb2  1  0.81895053  0.31895053  0.50000000  1
  Pb  Pb3  1  0.31895053  0.18104947  0.50000000  1
  Mo  Mo4  1  0.00000000  0.00000000  0.00000000  1
  Mo  Mo5  1  0.50000000  0.50000000  0.00000000  1
  As  As6  1  0.35226473  0.85226473  0.00000000  1
  As  As7  1  0.85226473  0.64773527  0.00000000  1
  As  As8  1  0.64773527  0.14773527  0.00000000  1
  As  As9  1  0.14773527  0.35226473  0.00000000  1
