# generated using pymatgen
data_Er(TmAu3)2
_symmetry_space_group_name_H-M   'P 1'
_cell_length_a   5.24520697
_cell_length_b   5.20992010
_cell_length_c   8.38597316
_cell_angle_alpha   71.90261537
_cell_angle_beta   80.97172986
_cell_angle_gamma   59.65750481
_symmetry_Int_Tables_number   1
_chemical_formula_structural   Er(TmAu3)2
_chemical_formula_sum   'Er1 Tm2 Au6'
_cell_volume   187.98983628
_cell_formula_units_Z   1
loop_
 _symmetry_equiv_pos_site_id
 _symmetry_equiv_pos_as_xyz
  1  'x, y, z'
loop_
 _atom_site_type_symbol
 _atom_site_label
 _atom_site_symmetry_multiplicity
 _atom_site_fract_x
 _atom_site_fract_y
 _atom_site_fract_z
 _atom_site_occupancy
  Er  Er0  1  0.00000000  0.00000000  0.50000000  1
  Tm  Tm1  1  0.50000000  0.83455515  0.83089070  1
  Tm  Tm2  1  0.50000000  0.16544485  0.16910930  1
  Au  Au3  1  0.16772389  0.83467793  0.16757812  1
  Au  Au4  1  0.83227611  0.49774395  0.16757812  1
  Au  Au5  1  0.83227611  0.16532207  0.83242188  1
  Au  Au6  1  0.16772389  0.50225605  0.83242188  1
  Au  Au7  1  0.32845772  0.32790900  0.50000000  1
  Au  Au8  1  0.67154228  0.67209100  0.50000000  1
