# generated using pymatgen
data_CrF3
_symmetry_space_group_name_H-M   'P 1'
_cell_length_a   5.44018605
_cell_length_b   5.44018605
_cell_length_c   5.44205355
_cell_angle_alpha   76.94431936
_cell_angle_beta   76.94431936
_cell_angle_gamma   116.97559800
_symmetry_Int_Tables_number   1
_chemical_formula_structural   CrF3
_chemical_formula_sum   'Cr2 F6'
_cell_volume   129.43952443
_cell_formula_units_Z   2
loop_
 _symmetry_equiv_pos_site_id
 _symmetry_equiv_pos_as_xyz
  1  'x, y, z'
loop_
 _atom_site_type_symbol
 _atom_site_label
 _atom_site_symmetry_multiplicity
 _atom_site_fract_x
 _atom_site_fract_y
 _atom_site_fract_z
 _atom_site_occupancy
  Cr  Cr0  1  0.00000000  0.00000000  0.50000000  1
  Cr  Cr1  1  0.00000000  0.00000000  0.00000000  1
  F  F2  1  0.16273034  0.31767433  0.64103289  1
  F  F3  1  0.84660371  0.15339629  0.25000000  1
  F  F4  1  0.68232567  0.83726966  0.85896711  1
  F  F5  1  0.83726966  0.68232567  0.35896711  1
  F  F6  1  0.15339629  0.84660371  0.75000000  1
  F  F7  1  0.31767433  0.16273034  0.14103289  1
