# generated using pymatgen
data_Na3FeBPO7
_symmetry_space_group_name_H-M   'P 1'
_cell_length_a   6.67182790
_cell_length_b   5.29163209
_cell_length_c   8.93753622
_cell_angle_alpha   88.46237096
_cell_angle_beta   90.00000000
_cell_angle_gamma   90.00000000
_symmetry_Int_Tables_number   1
_chemical_formula_structural   Na3FeBPO7
_chemical_formula_sum   'Na6 Fe2 B2 P2 O14'
_cell_volume   315.42483280
_cell_formula_units_Z   2
loop_
 _symmetry_equiv_pos_site_id
 _symmetry_equiv_pos_as_xyz
  1  'x, y, z'
loop_
 _atom_site_type_symbol
 _atom_site_label
 _atom_site_symmetry_multiplicity
 _atom_site_fract_x
 _atom_site_fract_y
 _atom_site_fract_z
 _atom_site_occupancy
  Na  Na0  1  0.25000000  0.24214759  0.92492322  1
  Na  Na1  1  0.00160167  0.75191831  0.74873877  1
  Na  Na2  1  0.49839833  0.75191831  0.74873877  1
  Na  Na3  1  0.50160167  0.24808169  0.25126123  1
  Na  Na4  1  0.99839833  0.24808169  0.25126123  1
  Na  Na5  1  0.75000000  0.75785241  0.07507678  1
  Fe  Fe6  1  0.75000000  0.22409548  0.66157904  1
  Fe  Fe7  1  0.25000000  0.77590452  0.33842096  1
  B  B8  1  0.75000000  0.27045650  0.93372043  1
  B  B9  1  0.25000000  0.72954350  0.06627957  1
  P  P10  1  0.25000000  0.27924042  0.57584210  1
  P  P11  1  0.75000000  0.72075958  0.42415790  1
  O  O12  1  0.25000000  0.69573840  0.91751702  1
  O  O13  1  0.75000000  0.03464123  0.86494426  1
  O  O14  1  0.75000000  0.47100916  0.82579100  1
  O  O15  1  0.06405566  0.21441342  0.67410301  1
  O  O16  1  0.43594434  0.21441342  0.67410301  1
  O  O17  1  0.25000000  0.56837001  0.53357437  1
  O  O18  1  0.75000000  0.87361717  0.56935197  1
  O  O19  1  0.25000000  0.12638283  0.43064803  1
  O  O20  1  0.75000000  0.43162999  0.46642563  1
  O  O21  1  0.56405566  0.78558658  0.32589699  1
  O  O22  1  0.93594434  0.78558658  0.32589699  1
  O  O23  1  0.25000000  0.52899084  0.17420900  1
  O  O24  1  0.25000000  0.96535877  0.13505574  1
  O  O25  1  0.75000000  0.30426160  0.08248298  1
