# generated using pymatgen
data_YbMgGe
_symmetry_space_group_name_H-M   'P 1'
_cell_length_a   4.40612519
_cell_length_b   7.37133685
_cell_length_c   8.43277681
_cell_angle_alpha   90.00000000
_cell_angle_beta   90.00000000
_cell_angle_gamma   90.00000000
_symmetry_Int_Tables_number   1
_chemical_formula_structural   YbMgGe
_chemical_formula_sum   'Yb4 Mg4 Ge4'
_cell_volume   273.88843611
_cell_formula_units_Z   4
loop_
 _symmetry_equiv_pos_site_id
 _symmetry_equiv_pos_as_xyz
  1  'x, y, z'
loop_
 _atom_site_type_symbol
 _atom_site_label
 _atom_site_symmetry_multiplicity
 _atom_site_fract_x
 _atom_site_fract_y
 _atom_site_fract_z
 _atom_site_occupancy
  Yb  Yb0  1  0.75000000  0.97702175  0.67978477  1
  Yb  Yb1  1  0.25000000  0.02297825  0.32021523  1
  Yb  Yb2  1  0.75000000  0.47702175  0.82021523  1
  Yb  Yb3  1  0.25000000  0.52297825  0.17978477  1
  Mg  Mg4  1  0.75000000  0.85567161  0.06159551  1
  Mg  Mg5  1  0.25000000  0.14432839  0.93840449  1
  Mg  Mg6  1  0.75000000  0.35567161  0.43840449  1
  Mg  Mg7  1  0.25000000  0.64432839  0.56159551  1
  Ge  Ge8  1  0.75000000  0.73641069  0.38182943  1
  Ge  Ge9  1  0.25000000  0.26358931  0.61817057  1
  Ge  Ge10  1  0.75000000  0.23641069  0.11817057  1
  Ge  Ge11  1  0.25000000  0.76358931  0.88182943  1
