# generated using pymatgen
data_LaPtAu2
_symmetry_space_group_name_H-M   'P 1'
_cell_length_a   4.28489627
_cell_length_b   5.42686091
_cell_length_c   9.10495699
_cell_angle_alpha   90.00000000
_cell_angle_beta   90.00000000
_cell_angle_gamma   113.21387987
_symmetry_Int_Tables_number   1
_chemical_formula_structural   LaPtAu2
_chemical_formula_sum   'La2 Pt2 Au4'
_cell_volume   194.58137129
_cell_formula_units_Z   2
loop_
 _symmetry_equiv_pos_site_id
 _symmetry_equiv_pos_as_xyz
  1  'x, y, z'
loop_
 _atom_site_type_symbol
 _atom_site_label
 _atom_site_symmetry_multiplicity
 _atom_site_fract_x
 _atom_site_fract_y
 _atom_site_fract_z
 _atom_site_occupancy
  La  La0  1  0.41634207  0.83112633  0.75000000  1
  La  La1  1  0.58365793  0.16887367  0.25000000  1
  Pt  Pt2  1  0.88120199  0.76293049  0.25000000  1
  Pt  Pt3  1  0.11879801  0.23706951  0.75000000  1
  Au  Au4  1  0.30212122  0.60457298  0.42231788  1
  Au  Au5  1  0.69787878  0.39542702  0.57768212  1
  Au  Au6  1  0.30212122  0.60457298  0.07768212  1
  Au  Au7  1  0.69787878  0.39542702  0.92231788  1
