# generated using pymatgen
data_TbSm3Y4
_symmetry_space_group_name_H-M   'P 1'
_cell_length_a   3.47314607
_cell_length_b   6.75236889
_cell_length_c   15.37951030
_cell_angle_alpha   131.20424287
_cell_angle_beta   96.48336283
_cell_angle_gamma   90.00000124
_symmetry_Int_Tables_number   1
_chemical_formula_structural   TbSm3Y4
_chemical_formula_sum   'Tb1 Sm3 Y4'
_cell_volume   268.28972344
_cell_formula_units_Z   1
loop_
 _symmetry_equiv_pos_site_id
 _symmetry_equiv_pos_as_xyz
  1  'x, y, z'
loop_
 _atom_site_type_symbol
 _atom_site_label
 _atom_site_symmetry_multiplicity
 _atom_site_fract_x
 _atom_site_fract_y
 _atom_site_fract_z
 _atom_site_occupancy
  Y  Y0  1  0.37557128  0.88112706  0.75114355  1
  Y  Y1  1  0.62442872  0.11887294  0.24885645  1
  Y  Y2  1  0.62439947  0.62826169  0.24879794  1
  Y  Y3  1  0.37560053  0.37173831  0.75120206  1
  Tb  Tb4  1  0.50000000  -0.00000000  0.00000000  1
  Sm  Sm5  1  -0.00000000  0.50000000  0.00000000  1
  Sm  Sm6  1  0.23969823  0.21932182  0.47939645  1
  Sm  Sm7  1  0.76030177  0.78067818  0.52060355  1
