# generated using pymatgen
data_BaNd2BeO5
_symmetry_space_group_name_H-M   'P 1'
_cell_length_a   6.76733666
_cell_length_b   7.46155345
_cell_length_c   9.85250830
_cell_angle_alpha   89.17936994
_cell_angle_beta   90.00000000
_cell_angle_gamma   90.00000000
_symmetry_Int_Tables_number   1
_chemical_formula_structural   BaNd2BeO5
_chemical_formula_sum   'Ba4 Nd8 Be4 O20'
_cell_volume   497.44984362
_cell_formula_units_Z   4
loop_
 _symmetry_equiv_pos_site_id
 _symmetry_equiv_pos_as_xyz
  1  'x, y, z'
loop_
 _atom_site_type_symbol
 _atom_site_label
 _atom_site_symmetry_multiplicity
 _atom_site_fract_x
 _atom_site_fract_y
 _atom_site_fract_z
 _atom_site_occupancy
  Ba  Ba0  1  0.58196224  0.02033152  0.67315884  1
  Ba  Ba1  1  0.08196224  0.97966848  0.82684116  1
  Ba  Ba2  1  0.41803776  0.97966848  0.32684116  1
  Ba  Ba3  1  0.91803776  0.02033152  0.17315884  1
  Nd  Nd4  1  0.41730299  0.52061317  0.32362289  1
  Nd  Nd5  1  0.91730299  0.47938683  0.17637711  1
  Nd  Nd6  1  0.58269701  0.47938683  0.67637711  1
  Nd  Nd7  1  0.08269701  0.52061317  0.82362289  1
  Nd  Nd8  1  0.09075496  0.25687685  0.52073225  1
  Nd  Nd9  1  0.59075496  0.74312315  0.97926775  1
  Nd  Nd10  1  0.90924504  0.74312315  0.47926775  1
  Nd  Nd11  1  0.40924504  0.25687685  0.02073225  1
  Be  Be12  1  0.80697950  0.26144111  0.90332737  1
  Be  Be13  1  0.69302050  0.26144111  0.40332737  1
  Be  Be14  1  0.19302050  0.73855889  0.09667263  1
  Be  Be15  1  0.30697950  0.73855889  0.59667263  1
  O  O16  1  0.63077097  0.28006869  0.23170639  1
  O  O17  1  0.13077097  0.71993131  0.26829361  1
  O  O18  1  0.36922903  0.71993131  0.76829361  1
  O  O19  1  0.86922903  0.28006869  0.73170639  1
  O  O20  1  0.16513280  0.28513448  0.28481061  1
  O  O21  1  0.66513280  0.71486552  0.21518939  1
  O  O22  1  0.83486720  0.71486552  0.71518939  1
  O  O23  1  0.33486720  0.28513448  0.78481061  1
  O  O24  1  0.01773265  0.28099491  0.99038271  1
  O  O25  1  0.48226735  0.28099491  0.49038271  1
  O  O26  1  0.98226735  0.71900509  0.00961729  1
  O  O27  1  0.51773265  0.71900509  0.50961729  1
  O  O28  1  0.19220882  0.93106755  0.56158022  1
  O  O29  1  0.69220882  0.06893245  0.93841978  1
  O  O30  1  0.80779118  0.06893245  0.43841978  1
  O  O31  1  0.30779118  0.93106755  0.06158022  1
  O  O32  1  0.82140543  0.44120737  0.43412677  1
  O  O33  1  0.32140543  0.55879263  0.06587323  1
  O  O34  1  0.17859457  0.55879263  0.56587323  1
  O  O35  1  0.67859457  0.44120737  0.93412677  1
