# generated using pymatgen
data_AlSbO3
_symmetry_space_group_name_H-M   'P 1'
_cell_length_a   5.66678872
_cell_length_b   5.66678872
_cell_length_c   13.23385449
_cell_angle_alpha   90.00000000
_cell_angle_beta   90.00000000
_cell_angle_gamma   120.00000001
_symmetry_Int_Tables_number   1
_chemical_formula_structural   AlSbO3
_chemical_formula_sum   'Al6 Sb6 O18'
_cell_volume   368.03661563
_cell_formula_units_Z   6
loop_
 _symmetry_equiv_pos_site_id
 _symmetry_equiv_pos_as_xyz
  1  'x, y, z'
loop_
 _atom_site_type_symbol
 _atom_site_label
 _atom_site_symmetry_multiplicity
 _atom_site_fract_x
 _atom_site_fract_y
 _atom_site_fract_z
 _atom_site_occupancy
  Al  Al0  1  0.66666667  0.33333333  0.26610752  1
  Al  Al1  1  0.33333333  0.66666667  0.76610752  1
  Al  Al2  1  0.66666667  0.33333333  0.76610752  1
  Al  Al3  1  0.33333333  0.66666667  0.26610752  1
  Al  Al4  1  0.00000000  0.00000000  0.73093319  1
  Al  Al5  1  0.00000000  0.00000000  0.23093319  1
  Sb  Sb6  1  0.70283685  0.00000000  0.48209018  1
  Sb  Sb7  1  0.70283685  0.70283685  0.98209018  1
  Sb  Sb8  1  0.00000000  0.29716315  0.98209018  1
  Sb  Sb9  1  0.00000000  0.70283685  0.48209018  1
  Sb  Sb10  1  0.29716315  0.29716315  0.48209018  1
  Sb  Sb11  1  0.29716315  -0.00000000  0.98209018  1
  O  O12  1  0.66666667  0.33333333  0.02638942  1
  O  O13  1  0.33333333  0.66666667  0.52638942  1
  O  O14  1  0.66666667  0.33333333  0.52638942  1
  O  O15  1  0.33333333  0.66666667  0.02638942  1
  O  O16  1  0.00000000  0.00000000  0.86433999  1
  O  O17  1  0.00000000  0.00000000  0.36433999  1
  O  O18  1  0.47359709  0.00000000  0.85196973  1
  O  O19  1  0.47359709  0.47359709  0.35196973  1
  O  O20  1  0.00000000  0.52640291  0.35196973  1
  O  O21  1  0.00000000  0.47359709  0.85196973  1
  O  O22  1  0.52640291  0.52640291  0.85196973  1
  O  O23  1  0.52640291  0.00000000  0.35196973  1
  O  O24  1  0.31620709  0.00000000  0.19751740  1
  O  O25  1  0.31620709  0.31620709  0.69751740  1
  O  O26  1  0.00000000  0.68379291  0.69751740  1
  O  O27  1  0.00000000  0.31620709  0.19751740  1
  O  O28  1  0.68379291  0.68379291  0.19751740  1
  O  O29  1  0.68379291  -0.00000000  0.69751740  1
