# generated using pymatgen
data_Tm2FeO5
_symmetry_space_group_name_H-M   'P 1'
_cell_length_a   3.64458427
_cell_length_b   10.26112410
_cell_length_c   11.19953888
_cell_angle_alpha   90.00000000
_cell_angle_beta   90.00000000
_cell_angle_gamma   90.00000000
_symmetry_Int_Tables_number   1
_chemical_formula_structural   Tm2FeO5
_chemical_formula_sum   'Tm8 Fe4 O20'
_cell_volume   418.83510791
_cell_formula_units_Z   4
loop_
 _symmetry_equiv_pos_site_id
 _symmetry_equiv_pos_as_xyz
  1  'x, y, z'
loop_
 _atom_site_type_symbol
 _atom_site_label
 _atom_site_symmetry_multiplicity
 _atom_site_fract_x
 _atom_site_fract_y
 _atom_site_fract_z
 _atom_site_occupancy
  Tm  Tm0  1  0.25000000  0.63545315  0.05747431  1
  Tm  Tm1  1  0.75000000  0.36454685  0.94252569  1
  Tm  Tm2  1  0.75000000  0.86454685  0.55747431  1
  Tm  Tm3  1  0.25000000  0.13545315  0.44252569  1
  Tm  Tm4  1  0.25000000  0.10527171  0.77741369  1
  Tm  Tm5  1  0.75000000  0.89472829  0.22258631  1
  Tm  Tm6  1  0.75000000  0.39472829  0.27741369  1
  Tm  Tm7  1  0.25000000  0.60527171  0.72258631  1
  Fe  Fe8  1  0.75000000  0.81794916  0.87932118  1
  Fe  Fe9  1  0.25000000  0.18205084  0.12067882  1
  Fe  Fe10  1  0.25000000  0.68205084  0.37932118  1
  Fe  Fe11  1  0.75000000  0.31794916  0.62067882  1
  O  O12  1  0.25000000  0.75097362  0.88318577  1
  O  O13  1  0.75000000  0.24902638  0.11681423  1
  O  O14  1  0.75000000  0.74902638  0.38318577  1
  O  O15  1  0.25000000  0.25097362  0.61681423  1
  O  O16  1  0.25000000  0.50890143  0.33459904  1
  O  O17  1  0.75000000  0.49109857  0.66540096  1
  O  O18  1  0.75000000  0.99109857  0.83459904  1
  O  O19  1  0.25000000  0.00890143  0.16540096  1
  O  O20  1  0.25000000  0.71846175  0.54384064  1
  O  O21  1  0.75000000  0.28153825  0.45615936  1
  O  O22  1  0.75000000  0.78153825  0.04384064  1
  O  O23  1  0.25000000  0.21846175  0.95615936  1
  O  O24  1  0.75000000  0.74201705  0.72560009  1
  O  O25  1  0.25000000  0.25798295  0.27439991  1
  O  O26  1  0.25000000  0.75798295  0.22560009  1
  O  O27  1  0.75000000  0.24201705  0.77439991  1
  O  O28  1  0.25000000  0.98815443  0.60249470  1
  O  O29  1  0.75000000  0.01184557  0.39750530  1
  O  O30  1  0.75000000  0.51184557  0.10249470  1
  O  O31  1  0.25000000  0.48815443  0.89750530  1
