# generated using pymatgen
data_Dy3Nb2(ReN4)3
_symmetry_space_group_name_H-M   'P 1'
_cell_length_a   11.05667494
_cell_length_b   11.05667494
_cell_length_c   11.05667494
_cell_angle_alpha   109.47122063
_cell_angle_beta   109.47122063
_cell_angle_gamma   109.47122063
_symmetry_Int_Tables_number   1
_chemical_formula_structural   Dy3Nb2(ReN4)3
_chemical_formula_sum   'Dy12 Nb8 Re12 N48'
_cell_volume   1040.52312112
_cell_formula_units_Z   4
loop_
 _symmetry_equiv_pos_site_id
 _symmetry_equiv_pos_as_xyz
  1  'x, y, z'
loop_
 _atom_site_type_symbol
 _atom_site_label
 _atom_site_symmetry_multiplicity
 _atom_site_fract_x
 _atom_site_fract_y
 _atom_site_fract_z
 _atom_site_occupancy
  Dy  Dy0  1  0.25000022  0.37499995  0.12499972  1
  Dy  Dy1  1  0.37499995  0.74999989  0.12500050  1
  Dy  Dy2  1  0.37499995  0.12499972  0.25000022  1
  Dy  Dy3  1  0.87500040  0.62500017  0.25000022  1
  Dy  Dy4  1  0.74999989  0.12500050  0.37499995  1
  Dy  Dy5  1  0.12499972  0.25000022  0.37499995  1
  Dy  Dy6  1  0.87499961  0.74999989  0.62500017  1
  Dy  Dy7  1  0.25000022  0.87500040  0.62500017  1
  Dy  Dy8  1  0.12500050  0.37499995  0.74999989  1
  Dy  Dy9  1  0.62500017  0.87499961  0.74999989  1
  Dy  Dy10  1  0.62500017  0.25000022  0.87500040  1
  Dy  Dy11  1  0.74999989  0.62500017  0.87499961  1
  N  N12  1  0.31454165  0.90287115  0.02262291  1
  N  N13  1  0.20808170  0.11975188  0.02262369  1
  N  N14  1  0.88024824  0.40287148  0.08832983  1
  N  N15  1  0.70808137  0.68545768  0.08832983  1
  N  N16  1  0.61975154  0.41166984  0.09712819  1
  N  N17  1  0.97737643  0.68545768  0.09712819  1
  N  N18  1  0.59712785  0.91166951  0.11975109  1
  N  N19  1  0.02262369  0.20808170  0.11975188  1
  N  N20  1  0.20808092  0.58832949  0.18545801  1
  N  N21  1  0.47737676  0.59712864  0.18545801  1
  N  N22  1  0.11975188  0.02262369  0.20808170  1
  N  N23  1  0.58832949  0.18545801  0.20808092  1
  N  N24  1  0.47737676  0.38024857  0.29191875  1
  N  N25  1  0.31454165  0.91167029  0.29191875  1
  N  N26  1  0.90287115  0.02262291  0.31454165  1
  N  N27  1  0.91167029  0.29191875  0.31454165  1
  N  N28  1  0.29191875  0.47737676  0.38024857  1
  N  N29  1  0.58832949  0.90287193  0.38024857  1
  N  N30  1  0.81454210  0.52262336  0.40287226  1
  N  N31  1  0.08832983  0.88024824  0.40287148  1
  N  N32  1  0.09712819  0.61975154  0.41166984  1
  N  N33  1  0.81454132  0.79191841  0.41166984  1
  N  N34  1  0.59712864  0.18545801  0.47737676  1
  N  N35  1  0.38024857  0.29191875  0.47737676  1
  N  N36  1  0.61975076  0.70808059  0.52262257  1
  N  N37  1  0.40287226  0.81454210  0.52262336  1
  N  N38  1  0.18545801  0.20808092  0.58832949  1
  N  N39  1  0.90287193  0.38024857  0.58832949  1
  N  N40  1  0.91166951  0.11975109  0.59712785  1
  N  N41  1  0.18545801  0.47737676  0.59712864  1
  N  N42  1  0.41166984  0.09712819  0.61975154  1
  N  N43  1  0.70808059  0.52262257  0.61975076  1
  N  N44  1  0.08832983  0.70808137  0.68545768  1
  N  N45  1  0.09712819  0.97737643  0.68545768  1
  N  N46  1  0.68545768  0.08832983  0.70808137  1
  N  N47  1  0.52262257  0.61975076  0.70808059  1
  N  N48  1  0.41166984  0.81454132  0.79191841  1
  N  N49  1  0.88024902  0.97737721  0.79191920  1
  N  N50  1  0.52262336  0.40287226  0.81454210  1
  N  N51  1  0.79191841  0.41166984  0.81454132  1
  N  N52  1  0.40287148  0.08832983  0.88024824  1
  N  N53  1  0.97737721  0.79191920  0.88024902  1
  N  N54  1  0.02262291  0.31454165  0.90287115  1
  N  N55  1  0.38024857  0.58832949  0.90287193  1
  N  N56  1  0.29191875  0.31454165  0.91167029  1
  N  N57  1  0.11975109  0.59712785  0.91166951  1
  N  N58  1  0.68545768  0.09712819  0.97737643  1
  N  N59  1  0.79191920  0.88024902  0.97737721  1
  Nb  Nb60  1  0.00000000  0.00000000  0.00000000  1
  Nb  Nb61  1  0.50000045  -0.00000000  0.00000000  1
  Nb  Nb62  1  0.00000000  0.50000045  -0.00000000  1
  Nb  Nb63  1  0.49999967  0.49999967  0.00000000  1
  Nb  Nb64  1  0.00000000  0.00000000  0.50000045  1
  Nb  Nb65  1  0.49999967  0.00000000  0.49999967  1
  Nb  Nb66  1  0.00000000  0.49999967  0.49999967  1
  Nb  Nb67  1  0.50000045  0.50000045  0.50000045  1
  Re  Re68  1  0.87499961  0.24999944  0.12499972  1
  Re  Re69  1  0.74999989  0.87499961  0.12499972  1
  Re  Re70  1  0.62500017  0.37499995  0.25000022  1
  Re  Re71  1  0.12499972  0.87499961  0.24999944  1
  Re  Re72  1  0.25000022  0.62500017  0.37499995  1
  Re  Re73  1  0.62499939  0.74999989  0.37499995  1
  Re  Re74  1  0.37499995  0.25000022  0.62500017  1
  Re  Re75  1  0.74999989  0.37499995  0.62499939  1
  Re  Re76  1  0.87499961  0.12499972  0.74999989  1
  Re  Re77  1  0.37499995  0.62499939  0.74999989  1
  Re  Re78  1  0.24999944  0.12499972  0.87499961  1
  Re  Re79  1  0.12499972  0.74999989  0.87499961  1
