# generated using pymatgen
data_BaSiPt2
_symmetry_space_group_name_H-M   'P 1'
_cell_length_a   5.49374471
_cell_length_b   5.49374469
_cell_length_c   5.49374466
_cell_angle_alpha   139.13093055
_cell_angle_beta   112.00452210
_cell_angle_gamma   82.47918276
_symmetry_Int_Tables_number   1
_chemical_formula_structural   BaSiPt2
_chemical_formula_sum   'Ba1 Si1 Pt2'
_cell_volume   97.36254709
_cell_formula_units_Z   1
loop_
 _symmetry_equiv_pos_site_id
 _symmetry_equiv_pos_as_xyz
  1  'x, y, z'
loop_
 _atom_site_type_symbol
 _atom_site_label
 _atom_site_symmetry_multiplicity
 _atom_site_fract_x
 _atom_site_fract_y
 _atom_site_fract_z
 _atom_site_occupancy
  Ba  Ba0  1  0.25000000  0.75000000  0.50000000  1
  Pt  Pt1  1  0.92050290  0.92050290  -0.00000000  1
  Pt  Pt2  1  0.57949710  0.57949710  1.00000000  1
  Si  Si3  1  0.75000000  0.25000000  0.50000000  1
