# generated using pymatgen
data_BiP
_symmetry_space_group_name_H-M   'P 1'
_cell_length_a   5.80720044
_cell_length_b   5.87747044
_cell_length_c   20.71213702
_cell_angle_alpha   90.00000000
_cell_angle_beta   90.00000000
_cell_angle_gamma   90.00000000
_symmetry_Int_Tables_number   1
_chemical_formula_structural   BiP
_chemical_formula_sum   'Bi6 P6'
_cell_volume   706.93938926
_cell_formula_units_Z   6
loop_
 _symmetry_equiv_pos_site_id
 _symmetry_equiv_pos_as_xyz
  1  'x, y, z'
loop_
 _atom_site_type_symbol
 _atom_site_label
 _atom_site_symmetry_multiplicity
 _atom_site_fract_x
 _atom_site_fract_y
 _atom_site_fract_z
 _atom_site_occupancy
  P  P0  1  0.50000000  0.28446589  0.63789347  1
  P  P1  1  0.00000000  0.79030257  0.36210653  1
  P  P2  1  0.50000000  0.29030257  0.36210653  1
  P  P3  1  0.00000000  0.78446589  0.63789347  1
  P  P4  1  0.00000000  0.28738423  0.50000000  1
  P  P5  1  0.50000000  0.78738423  0.50000000  1
  Bi  Bi6  1  0.00022640  0.32192970  0.63568146  1
  Bi  Bi7  1  0.50022640  0.75283876  0.36431854  1
  Bi  Bi8  1  0.99977360  0.25283876  0.36431854  1
  Bi  Bi9  1  0.49977360  0.82192970  0.63568146  1
  Bi  Bi10  1  0.00000000  0.78738423  0.50000000  1
  Bi  Bi11  1  0.50000000  0.28738423  0.50000000  1
