# generated using pymatgen
data_Hf2Ta3Ge4
_symmetry_space_group_name_H-M   'P 1'
_cell_length_a   6.86006318
_cell_length_b   6.99468408
_cell_length_c   6.98582612
_cell_angle_alpha   90.00000000
_cell_angle_beta   90.00000000
_cell_angle_gamma   110.18750252
_symmetry_Int_Tables_number   1
_chemical_formula_structural   Hf2Ta3Ge4
_chemical_formula_sum   'Hf4 Ta6 Ge8'
_cell_volume   314.61533086
_cell_formula_units_Z   2
loop_
 _symmetry_equiv_pos_site_id
 _symmetry_equiv_pos_as_xyz
  1  'x, y, z'
loop_
 _atom_site_type_symbol
 _atom_site_label
 _atom_site_symmetry_multiplicity
 _atom_site_fract_x
 _atom_site_fract_y
 _atom_site_fract_z
 _atom_site_occupancy
  Hf  Hf0  1  0.54983821  0.18411646  0.33150325  1
  Hf  Hf1  1  0.95016179  0.81588354  0.83150325  1
  Hf  Hf2  1  0.45016179  0.81588354  0.66849675  1
  Hf  Hf3  1  0.04983821  0.18411646  0.16849675  1
  Ta  Ta4  1  0.00000000  0.50000000  0.50000000  1
  Ta  Ta5  1  0.50000000  0.50000000  0.00000000  1
  Ta  Ta6  1  0.74389989  0.24986495  0.82577734  1
  Ta  Ta7  1  0.75610011  0.75013505  0.32577734  1
  Ta  Ta8  1  0.25610011  0.75013505  0.17422266  1
  Ta  Ta9  1  0.24389989  0.24986495  0.67422266  1
  Ge  Ge10  1  0.84630743  0.08016648  0.53275453  1
  Ge  Ge11  1  0.65369257  0.91983352  0.03275453  1
  Ge  Ge12  1  0.15369257  0.91983352  0.46724547  1
  Ge  Ge13  1  0.34630743  0.08016648  0.96724547  1
  Ge  Ge14  1  0.86354331  0.48511825  0.13353950  1
  Ge  Ge15  1  0.63645669  0.51488175  0.63353950  1
  Ge  Ge16  1  0.13645669  0.51488175  0.86646050  1
  Ge  Ge17  1  0.36354331  0.48511825  0.36646050  1
