# generated using pymatgen
data_CrBr3
_symmetry_space_group_name_H-M   'P 1'
_cell_length_a   7.07182100
_cell_length_b   9.77020955
_cell_length_c   18.24801924
_cell_angle_alpha   90.00000000
_cell_angle_beta   90.00000000
_cell_angle_gamma   136.41060683
_symmetry_Int_Tables_number   1
_chemical_formula_structural   CrBr3
_chemical_formula_sum   'Cr2 Br6'
_cell_volume   869.31262513
_cell_formula_units_Z   2
loop_
 _symmetry_equiv_pos_site_id
 _symmetry_equiv_pos_as_xyz
  1  'x, y, z'
loop_
 _atom_site_type_symbol
 _atom_site_label
 _atom_site_symmetry_multiplicity
 _atom_site_fract_x
 _atom_site_fract_y
 _atom_site_fract_z
 _atom_site_occupancy
  Cr  Cr0  1  0.02913895  0.52674666  0.50708751  1
  Cr  Cr1  1  0.64117564  0.63872157  0.49291752  1
  Br  Br2  1  0.91489508  0.66296768  0.58898808  1
  Br  Br3  1  0.75545043  0.50250807  0.41101300  1
  Br  Br4  1  0.25438373  0.50256203  0.41100419  1
  Br  Br5  1  0.41595513  0.66291010  0.58899717  1
  Br  Br6  1  0.96989451  0.96710014  0.45132597  1
  Br  Br7  1  0.70040723  0.19836124  0.54866656  1
