# generated using pymatgen
data_LiSiBiO4
_symmetry_space_group_name_H-M   'P 1'
_cell_length_a   9.29882841
_cell_length_b   9.29882841
_cell_length_c   9.29882757
_cell_angle_alpha   109.77279827
_cell_angle_beta   109.77279816
_cell_angle_gamma   109.77279492
_symmetry_Int_Tables_number   1
_chemical_formula_structural   LiSiBiO4
_chemical_formula_sum   'Li6 Si6 Bi6 O24'
_cell_volume   611.95169133
_cell_formula_units_Z   6
loop_
 _symmetry_equiv_pos_site_id
 _symmetry_equiv_pos_as_xyz
  1  'x, y, z'
loop_
 _atom_site_type_symbol
 _atom_site_label
 _atom_site_symmetry_multiplicity
 _atom_site_fract_x
 _atom_site_fract_y
 _atom_site_fract_z
 _atom_site_occupancy
  Li  Li0  1  0.95879325  0.48960248  0.87670424  1
  Li  Li1  1  0.42684783  0.23308170  0.08448589  1
  Li  Li2  1  0.23308170  0.08448589  0.42684783  1
  Li  Li3  1  0.87670424  0.95879325  0.48960248  1
  Li  Li4  1  0.48960248  0.87670424  0.95879325  1
  Li  Li5  1  0.08448589  0.42684783  0.23308170  1
  Si  Si6  1  0.87246371  0.08991204  0.27046053  1
  Si  Si7  1  0.83030502  0.51279239  0.37330584  1
  Si  Si8  1  0.51279239  0.37330584  0.83030502  1
  Si  Si9  1  0.08991204  0.27046053  0.87246371  1
  Si  Si10  1  0.37330584  0.83030502  0.51279239  1
  Si  Si11  1  0.27046053  0.87246371  0.08991204  1
  Bi  Bi12  1  0.69618312  0.16345515  0.90271516  1
  Bi  Bi13  1  0.64572125  0.21292067  0.48428280  1
  Bi  Bi14  1  0.90271516  0.69618312  0.16345515  1
  Bi  Bi15  1  0.48428280  0.64572125  0.21292067  1
  Bi  Bi16  1  0.21292067  0.48428280  0.64572125  1
  Bi  Bi17  1  0.16345515  0.90271516  0.69618312  1
  O  O18  1  0.73950694  0.01698304  0.06427667  1
  O  O19  1  0.97957043  0.31323173  0.97080536  1
  O  O20  1  0.75537473  0.06493570  0.37212250  1
  O  O21  1  0.44525099  0.20397750  0.86505629  1
  O  O22  1  0.36588614  0.03854828  0.29528114  1
  O  O23  1  0.69842893  0.39291257  0.82947364  1
  O  O24  1  0.86505629  0.44525099  0.20397750  1
  O  O25  1  0.64117781  0.35592901  0.32349202  1
  O  O26  1  0.99780990  0.57854095  0.56739265  1
  O  O27  1  0.57854095  0.56739265  0.99780990  1
  O  O28  1  0.35592901  0.32349202  0.64117781  1
  O  O29  1  0.97080536  0.97957043  0.31323173  1
  O  O30  1  0.01698304  0.06427667  0.73950694  1
  O  O31  1  0.82947364  0.69842893  0.39291257  1
  O  O32  1  0.29528114  0.36588614  0.03854828  1
  O  O33  1  0.03854828  0.29528114  0.36588614  1
  O  O34  1  0.39291257  0.82947364  0.69842893  1
  O  O35  1  0.06493570  0.37212250  0.75537473  1
  O  O36  1  0.32349202  0.64117781  0.35592901  1
  O  O37  1  0.56739265  0.99780990  0.57854095  1
  O  O38  1  0.37212250  0.75537473  0.06493570  1
  O  O39  1  0.20397750  0.86505629  0.44525099  1
  O  O40  1  0.06427667  0.73950694  0.01698304  1
  O  O41  1  0.31323173  0.97080536  0.97957043  1
