# generated using pymatgen
data_Sm2Dy3Sn4
_symmetry_space_group_name_H-M   'P 1'
_cell_length_a   8.01669855
_cell_length_b   8.34080650
_cell_length_c   8.30847137
_cell_angle_alpha   90.00000000
_cell_angle_beta   90.00000000
_cell_angle_gamma   110.89991181
_symmetry_Int_Tables_number   1
_chemical_formula_structural   Sm2Dy3Sn4
_chemical_formula_sum   'Sm4 Dy6 Sn8'
_cell_volume   518.99948302
_cell_formula_units_Z   2
loop_
 _symmetry_equiv_pos_site_id
 _symmetry_equiv_pos_as_xyz
  1  'x, y, z'
loop_
 _atom_site_type_symbol
 _atom_site_label
 _atom_site_symmetry_multiplicity
 _atom_site_fract_x
 _atom_site_fract_y
 _atom_site_fract_z
 _atom_site_occupancy
  Sm  Sm0  1  0.56092604  0.19316665  0.32086817  1
  Sm  Sm1  1  0.93907396  0.80683335  0.82086817  1
  Sm  Sm2  1  0.43907396  0.80683335  0.67913183  1
  Sm  Sm3  1  0.06092604  0.19316665  0.17913183  1
  Dy  Dy4  1  0.00000000  0.50000000  0.50000000  1
  Dy  Dy5  1  0.50000000  0.50000000  0.00000000  1
  Dy  Dy6  1  0.73787576  0.24570519  0.83265146  1
  Dy  Dy7  1  0.76212424  0.75429481  0.33265146  1
  Dy  Dy8  1  0.26212424  0.75429481  0.16734854  1
  Dy  Dy9  1  0.23787576  0.24570519  0.66734854  1
  Sn  Sn10  1  0.83557408  0.08285910  0.53762203  1
  Sn  Sn11  1  0.66442592  0.91714090  0.03762203  1
  Sn  Sn12  1  0.16442592  0.91714090  0.46237797  1
  Sn  Sn13  1  0.33557408  0.08285910  0.96237797  1
  Sn  Sn14  1  0.86375073  0.48710494  0.13554198  1
  Sn  Sn15  1  0.63624927  0.51289506  0.63554198  1
  Sn  Sn16  1  0.13624927  0.51289506  0.86445802  1
  Sn  Sn17  1  0.36375073  0.48710494  0.36445802  1
